<?xml version="1.0" encoding="UTF-8"?>

<!-- generated on Sun May  2 21:54:11 2021 by Eclipse SUMO netconvert Version 1.9.0
<configuration xmlns:xsi="http://www.w3.org/2001/XMLSchema-instance" xsi:noNamespaceSchemaLocation="http://sumo.dlr.de/xsd/netconvertConfiguration.xsd">

    <input>
        <type-files value="C:\Program%20Files%20(x86)\Eclipse\Sumo\data\typemap\osmNetconvert.typ.xml"/>
        <osm-files value="osm_bbox.osm.xml"/>
    </input>

    <output>
        <output-file value="osm.net.xml"/>
        <output.street-names value="true"/>
        <output.original-names value="true"/>
    </output>

    <projection>
        <proj.utm value="true"/>
    </projection>

    <processing>
        <geometry.remove value="true"/>
        <roundabouts.guess value="true"/>
    </processing>

    <tls_building>
        <tls.discard-simple value="true"/>
        <tls.join value="true"/>
        <tls.guess-signals value="true"/>
        <tls.default-type value="actuated"/>
    </tls_building>

    <ramp_guessing>
        <ramps.guess value="true"/>
    </ramp_guessing>

    <junctions>
        <junctions.join value="true"/>
        <junctions.corner-detail value="5"/>
    </junctions>

    <report>
        <verbose value="true"/>
        <aggregate-warnings value="5"/>
    </report>

</configuration>
-->

<net version="1.9" junctionCornerDetail="5" limitTurnSpeed="5.50" xmlns:xsi="http://www.w3.org/2001/XMLSchema-instance" xsi:noNamespaceSchemaLocation="http://sumo.dlr.de/xsd/net_file.xsd">

    <location netOffset="-390301.73,-5819523.68" convBoundary="0.00,0.00,1783.03,1580.06" origBoundary="13.372213,52.514880,13.409514,52.529230" projParameter="+proj=utm +zone=33 +ellps=WGS84 +datum=WGS84 +units=m +no_defs"/>

    <type id="highway.bridleway" priority="1" numLanes="1" speed="2.78" allow="pedestrian" oneway="1" width="2.00"/>
    <type id="highway.bus_guideway" priority="1" numLanes="1" speed="27.78" allow="bus" oneway="1"/>
    <type id="highway.cycleway" priority="1" numLanes="1" speed="8.33" allow="bicycle" oneway="0" width="1.00"/>
    <type id="highway.footway" priority="1" numLanes="1" speed="2.78" allow="pedestrian" oneway="1" width="2.00"/>
    <type id="highway.ford" priority="1" numLanes="1" speed="2.78" allow="army" oneway="0"/>
    <type id="highway.living_street" priority="2" numLanes="1" speed="2.78" disallow="tram rail_urban rail rail_electric rail_fast ship" oneway="0"/>
    <type id="highway.motorway" priority="14" numLanes="2" speed="39.44" allow="private emergency authority army vip passenger hov taxi bus coach delivery truck trailer motorcycle evehicle custom1 custom2" oneway="1"/>
    <type id="highway.motorway_link" priority="9" numLanes="1" speed="22.22" allow="private emergency authority army vip passenger hov taxi bus coach delivery truck trailer motorcycle evehicle custom1 custom2" oneway="1"/>
    <type id="highway.path" priority="1" numLanes="1" speed="2.78" allow="pedestrian bicycle" oneway="0" width="2.00"/>
    <type id="highway.pedestrian" priority="1" numLanes="1" speed="2.78" allow="pedestrian" oneway="1" width="2.00"/>
    <type id="highway.primary" priority="12" numLanes="2" speed="27.78" disallow="tram rail_urban rail rail_electric rail_fast ship" oneway="0"/>
    <type id="highway.primary_link" priority="7" numLanes="1" speed="22.22" disallow="tram rail_urban rail rail_electric rail_fast ship" oneway="0"/>
    <type id="highway.raceway" priority="15" numLanes="2" speed="83.33" allow="vip" oneway="0"/>
    <type id="highway.residential" priority="3" numLanes="1" speed="13.89" disallow="tram rail_urban rail rail_electric rail_fast ship" oneway="0"/>
    <type id="highway.secondary" priority="11" numLanes="1" speed="27.78" disallow="tram rail_urban rail rail_electric rail_fast ship" oneway="0"/>
    <type id="highway.secondary_link" priority="6" numLanes="1" speed="22.22" disallow="tram rail_urban rail rail_electric rail_fast ship" oneway="0"/>
    <type id="highway.service" priority="1" numLanes="1" speed="5.56" allow="pedestrian delivery bicycle" oneway="0"/>
    <type id="highway.stairs" priority="1" numLanes="1" speed="1.39" allow="pedestrian" oneway="1" width="2.00"/>
    <type id="highway.step" priority="1" numLanes="1" speed="1.39" allow="pedestrian" oneway="1" width="2.00"/>
    <type id="highway.steps" priority="1" numLanes="1" speed="1.39" allow="pedestrian" oneway="1" width="2.00"/>
    <type id="highway.tertiary" priority="10" numLanes="1" speed="22.22" disallow="tram rail_urban rail rail_electric rail_fast ship" oneway="0"/>
    <type id="highway.tertiary_link" priority="5" numLanes="1" speed="22.22" disallow="tram rail_urban rail rail_electric rail_fast ship" oneway="0"/>
    <type id="highway.track" priority="1" numLanes="1" speed="5.56" allow="pedestrian motorcycle moped bicycle" oneway="0"/>
    <type id="highway.trunk" priority="13" numLanes="2" speed="27.78" disallow="pedestrian bicycle tram rail_urban rail rail_electric rail_fast ship" oneway="0"/>
    <type id="highway.trunk_link" priority="8" numLanes="1" speed="22.22" disallow="pedestrian bicycle tram rail_urban rail rail_electric rail_fast ship" oneway="0"/>
    <type id="highway.unclassified" priority="4" numLanes="1" speed="13.89" disallow="tram rail_urban rail rail_electric rail_fast ship" oneway="0"/>
    <type id="highway.unsurfaced" priority="1" numLanes="1" speed="8.33" disallow="tram rail_urban rail rail_electric rail_fast ship" oneway="0"/>
    <type id="railway.highspeed" priority="21" numLanes="1" speed="69.44" allow="rail_fast" oneway="1"/>
    <type id="railway.light_rail" priority="19" numLanes="1" speed="27.78" allow="rail_urban" oneway="1"/>
    <type id="railway.preserved" priority="16" numLanes="1" speed="27.78" allow="rail" oneway="1"/>
    <type id="railway.rail" priority="20" numLanes="1" speed="44.44" allow="rail" oneway="1"/>
    <type id="railway.subway" priority="18" numLanes="1" speed="27.78" allow="rail_urban" oneway="1"/>
    <type id="railway.tram" priority="17" numLanes="1" speed="13.89" allow="tram" oneway="1"/>

    <edge id=":1075544310_0" function="internal">
        <lane id=":1075544310_0_0" index="0" disallow="tram rail_urban rail rail_electric rail_fast ship" speed="3.65" length="4.67" shape="753.42,862.19 753.80,860.79 754.43,860.16 755.31,860.28 756.45,861.16"/>
    </edge>
    <edge id=":1157325174_0" function="internal">
        <lane id=":1157325174_0_0" index="0" disallow="tram rail_urban rail rail_electric rail_fast ship" speed="13.89" length="4.99" shape="1408.49,642.59 1405.45,646.52"/>
        <lane id=":1157325174_0_1" index="1" disallow="tram rail_urban rail rail_electric rail_fast ship" speed="13.89" length="4.99" shape="1405.98,640.61 1402.91,644.58"/>
    </edge>
    <edge id=":1210473765_0" function="internal">
        <lane id=":1210473765_0_0" index="0" allow="pedestrian delivery bicycle" speed="3.93" length="2.16" shape="646.93,962.90 646.65,962.40 646.28,962.06 645.80,961.90 645.22,961.90"/>
    </edge>
    <edge id=":1210473765_1" function="internal">
        <lane id=":1210473765_1_0" index="0" allow="pedestrian delivery bicycle" speed="6.13" length="6.48" shape="644.78,958.73 646.51,958.72 647.94,959.22 649.07,960.22 649.91,961.73"/>
    </edge>
    <edge id=":1210473765_2" function="internal">
        <lane id=":1210473765_2_0" index="0" disallow="tram rail_urban rail rail_electric rail_fast ship" speed="3.65" length="4.67" shape="644.78,958.73 646.08,959.36 646.59,960.09 646.30,960.94 645.22,961.90"/>
    </edge>
    <edge id=":1210473819_0" function="internal">
        <lane id=":1210473819_0_0" index="0" allow="pedestrian delivery bicycle" speed="3.65" length="4.67" shape="686.57,1068.86 686.20,1070.25 685.57,1070.89 684.68,1070.77 683.54,1069.89"/>
    </edge>
    <edge id=":1217651538_0" function="internal">
        <lane id=":1217651538_0_0" index="0" allow="pedestrian delivery bicycle" speed="5.17" length="5.16" shape="771.55,676.15 770.28,675.43 769.10,675.26 768.00,675.63 767.00,676.54"/>
    </edge>
    <edge id=":1217651538_1" function="internal">
        <lane id=":1217651538_1_0" index="0" allow="pedestrian delivery bicycle" speed="6.87" length="10.36" shape="771.55,676.15 769.56,674.15 768.72,671.99 769.01,669.66 770.45,667.17"/>
    </edge>
    <edge id=":1217651538_2" function="internal">
        <lane id=":1217651538_2_0" index="0" allow="pedestrian delivery bicycle" speed="3.65" length="4.67" shape="771.55,676.15 771.07,674.79 771.23,673.91 772.03,673.51 773.47,673.59"/>
    </edge>
    <edge id=":1217651538_3" function="internal">
        <lane id=":1217651538_3_0" index="0" allow="pedestrian delivery bicycle" speed="5.03" length="5.06" shape="772.92,669.21 772.22,670.42 772.08,671.56 772.50,672.61 773.47,673.59"/>
    </edge>
    <edge id=":1217651538_4" function="internal">
        <lane id=":1217651538_4_0" index="0" disallow="tram rail_urban rail rail_electric rail_fast ship" speed="8.33" length="9.42" shape="772.92,669.21 767.00,676.54"/>
    </edge>
    <edge id=":1217651538_5" function="internal">
        <lane id=":1217651538_5_0" index="0" disallow="tram rail_urban rail rail_electric rail_fast ship" speed="3.65" length="2.34" shape="772.92,669.21 771.54,669.63 770.67,669.43"/>
    </edge>
    <edge id=":1217651538_9" function="internal">
        <lane id=":1217651538_9_0" index="0" disallow="tram rail_urban rail rail_electric rail_fast ship" speed="3.65" length="2.34" shape="770.67,669.43 770.31,668.61 770.45,667.17"/>
    </edge>
    <edge id=":1217651538_6" function="internal">
        <lane id=":1217651538_6_0" index="0" disallow="tram rail_urban rail rail_electric rail_fast ship" speed="8.33" length="9.45" shape="764.52,674.52 770.45,667.17"/>
    </edge>
    <edge id=":1217651538_7" function="internal">
        <lane id=":1217651538_7_0" index="0" allow="pedestrian delivery bicycle" speed="6.95" length="5.02" shape="764.52,674.52 766.52,672.68 768.68,671.91"/>
    </edge>
    <edge id=":1217651538_8" function="internal">
        <lane id=":1217651538_8_0" index="0" disallow="tram rail_urban rail rail_electric rail_fast ship" speed="3.65" length="2.34" shape="764.52,674.52 765.89,674.09 766.77,674.29"/>
    </edge>
    <edge id=":1217651538_10" function="internal">
        <lane id=":1217651538_10_0" index="0" allow="pedestrian delivery bicycle" speed="6.95" length="5.17" shape="768.68,671.91 771.00,672.21 773.47,673.59"/>
    </edge>
    <edge id=":1217651538_11" function="internal">
        <lane id=":1217651538_11_0" index="0" disallow="tram rail_urban rail rail_electric rail_fast ship" speed="3.65" length="2.34" shape="766.77,674.29 767.14,675.10 767.00,676.54"/>
    </edge>
    <edge id=":1275468904_0" function="internal">
        <lane id=":1275468904_0_0" index="0" disallow="tram rail_urban rail rail_electric rail_fast ship" speed="13.89" length="4.96" shape="1619.33,890.49 1617.38,885.93"/>
    </edge>
    <edge id=":1275468904_1" function="internal">
        <lane id=":1275468904_1_0" index="0" disallow="tram rail_urban rail rail_electric rail_fast ship" speed="3.65" length="2.34" shape="1619.33,890.49 1619.60,889.07 1620.18,888.40"/>
    </edge>
    <edge id=":1275468904_4" function="internal">
        <lane id=":1275468904_4_0" index="0" disallow="tram rail_urban rail rail_electric rail_fast ship" speed="3.65" length="2.34" shape="1620.18,888.40 1621.07,888.45 1622.28,889.25"/>
    </edge>
    <edge id=":1275468904_2" function="internal">
        <lane id=":1275468904_2_0" index="0" disallow="tram rail_urban rail rail_electric rail_fast ship" speed="13.89" length="4.99" shape="1620.32,884.66 1622.28,889.25"/>
    </edge>
    <edge id=":1275468904_3" function="internal">
        <lane id=":1275468904_3_0" index="0" disallow="tram rail_urban rail rail_electric rail_fast ship" speed="3.65" length="2.34" shape="1620.32,884.66 1620.06,886.08 1619.49,886.77"/>
    </edge>
    <edge id=":1275468904_5" function="internal">
        <lane id=":1275468904_5_0" index="0" disallow="tram rail_urban rail rail_electric rail_fast ship" speed="3.65" length="2.34" shape="1619.49,886.77 1618.59,886.72 1617.38,885.93"/>
    </edge>
    <edge id=":1371317063_0" function="internal">
        <lane id=":1371317063_0_0" index="0" disallow="tram rail_urban rail rail_electric rail_fast ship" speed="8.33" length="5.29" shape="916.36,462.82 911.80,460.12"/>
    </edge>
    <edge id=":1371317063_1" function="internal">
        <lane id=":1371317063_1_0" index="0" disallow="tram rail_urban rail rail_electric rail_fast ship" speed="3.65" length="4.67" shape="916.36,462.82 915.72,461.53 915.77,460.63 916.52,460.14 917.95,460.05"/>
    </edge>
    <edge id=":1371317063_2" function="internal">
        <lane id=":1371317063_2_0" index="0" disallow="tram rail_urban rail rail_electric rail_fast ship" speed="8.33" length="5.25" shape="913.44,457.37 917.95,460.05"/>
    </edge>
    <edge id=":1371317063_3" function="internal">
        <lane id=":1371317063_3_0" index="0" disallow="tram rail_urban rail rail_electric rail_fast ship" speed="3.65" length="4.67" shape="913.44,457.37 914.06,458.68 913.99,459.57 913.24,460.05 911.80,460.12"/>
    </edge>
    <edge id=":1387903273_0" function="internal">
        <lane id=":1387903273_0_0" index="0" disallow="tram rail_urban rail rail_electric rail_fast ship" speed="8.33" length="9.81" shape="268.70,551.68 271.56,552.22 273.53,552.65 275.50,552.88 278.39,552.83"/>
    </edge>
    <edge id=":1387903273_1" function="internal">
        <lane id=":1387903273_1_0" index="0" disallow="tram rail_urban rail rail_electric rail_fast ship" speed="4.98" length="8.94" shape="268.70,551.68 271.71,552.39 272.77,553.26 271.87,554.29 269.01,555.48"/>
    </edge>
    <edge id=":1446360398_0" function="internal">
        <lane id=":1446360398_0_0" index="0" allow="pedestrian delivery bicycle" speed="3.65" length="4.67" shape="268.99,1019.45 267.57,1019.71 266.72,1019.41 266.46,1018.55 266.77,1017.14"/>
    </edge>
    <edge id=":1447185655_0" function="internal">
        <lane id=":1447185655_0_0" index="0" disallow="tram rail_urban rail rail_electric rail_fast ship" speed="6.02" length="9.08" shape="287.18,824.67 285.06,823.19 283.13,822.91 281.40,823.81 279.87,825.90"/>
    </edge>
    <edge id=":1447185655_1" function="internal">
        <lane id=":1447185655_1_0" index="0" disallow="tram rail_urban rail rail_electric rail_fast ship" speed="11.11" length="14.62" shape="287.18,824.67 276.46,814.73"/>
    </edge>
    <edge id=":1447185655_2" function="internal">
        <lane id=":1447185655_2_0" index="0" disallow="tram rail_urban rail rail_electric rail_fast ship" speed="3.65" length="2.34" shape="287.18,824.67 286.85,823.27 287.10,822.41"/>
    </edge>
    <edge id=":1447185655_9" function="internal">
        <lane id=":1447185655_9_0" index="0" disallow="tram rail_urban rail rail_electric rail_fast ship" speed="3.65" length="2.34" shape="287.10,822.41 287.94,822.09 289.36,822.32"/>
    </edge>
    <edge id=":1447185655_3" function="internal">
        <lane id=":1447185655_3_0" index="0" disallow="tram rail_urban rail rail_electric rail_fast ship" speed="11.11" length="14.63" shape="278.63,812.38 289.36,822.32"/>
    </edge>
    <edge id=":1447185655_4" function="internal">
        <lane id=":1447185655_4_0" index="0" disallow="tram rail_urban rail rail_electric rail_fast ship" speed="8.33" length="5.59" shape="278.63,812.38 280.83,815.19 281.40,817.13"/>
    </edge>
    <edge id=":1447185655_5" function="internal">
        <lane id=":1447185655_5_0" index="0" disallow="tram rail_urban rail rail_electric rail_fast ship" speed="3.65" length="2.34" shape="278.63,812.38 278.97,813.78 278.72,814.64"/>
    </edge>
    <edge id=":1447185655_10" function="internal">
        <lane id=":1447185655_10_0" index="0" disallow="tram rail_urban rail rail_electric rail_fast ship" speed="8.33" length="9.14" shape="281.40,817.13 281.77,818.37 281.45,821.94 279.87,825.90"/>
    </edge>
    <edge id=":1447185655_11" function="internal">
        <lane id=":1447185655_11_0" index="0" disallow="tram rail_urban rail rail_electric rail_fast ship" speed="3.65" length="2.34" shape="278.72,814.64 277.88,814.96 276.46,814.73"/>
    </edge>
    <edge id=":1447185655_6" function="internal">
        <lane id=":1447185655_6_0" index="0" disallow="tram rail_urban rail rail_electric rail_fast ship" speed="7.69" length="10.49" shape="277.05,824.39 278.23,821.50 278.53,818.92 277.94,816.67 276.46,814.73"/>
    </edge>
    <edge id=":1447185655_7" function="internal">
        <lane id=":1447185655_7_0" index="0" disallow="tram rail_urban rail rail_electric rail_fast ship" speed="7.62" length="15.28" shape="277.05,824.39 279.62,820.87 282.53,819.36 285.78,819.84 289.36,822.32"/>
    </edge>
    <edge id=":1447185655_8" function="internal">
        <lane id=":1447185655_8_0" index="0" disallow="tram rail_urban rail rail_electric rail_fast ship" speed="3.65" length="4.67" shape="277.05,824.39 278.32,823.71 279.21,823.73 279.73,824.46 279.87,825.90"/>
    </edge>
    <edge id=":1447185681_0" function="internal">
        <lane id=":1447185681_0_0" index="0" disallow="tram rail_urban rail rail_electric rail_fast ship" speed="3.65" length="4.67" shape="158.32,971.30 157.34,970.24 157.14,969.37 157.72,968.68 159.07,968.19"/>
    </edge>
    <edge id=":1449754450_0" function="internal">
        <lane id=":1449754450_0_0" index="0" allow="pedestrian delivery bicycle" speed="4.93" length="5.13" shape="858.24,471.83 856.86,471.48 855.74,471.69 854.89,472.44 854.30,473.74"/>
    </edge>
    <edge id=":1449754450_1" function="internal">
        <lane id=":1449754450_1_0" index="0" allow="pedestrian delivery bicycle" speed="5.56" length="9.44" shape="858.24,471.83 849.51,468.26"/>
    </edge>
    <edge id=":1449754450_2" function="internal">
        <lane id=":1449754450_2_0" index="0" allow="pedestrian delivery bicycle" speed="3.65" length="4.67" shape="858.24,471.83 857.44,470.64 857.37,469.74 858.04,469.15 859.46,468.87"/>
    </edge>
    <edge id=":1449754450_3" function="internal">
        <lane id=":1449754450_3_0" index="0" allow="pedestrian delivery bicycle" speed="5.56" length="9.44" shape="850.72,465.30 859.46,468.87"/>
    </edge>
    <edge id=":1449754450_4" function="internal">
        <lane id=":1449754450_4_0" index="0" allow="pedestrian delivery bicycle" speed="5.56" length="10.22" shape="850.72,465.30 852.96,466.65 854.31,468.51 854.75,470.87 854.30,473.74"/>
    </edge>
    <edge id=":1449754450_5" function="internal">
        <lane id=":1449754450_5_0" index="0" allow="pedestrian delivery bicycle" speed="3.65" length="4.67" shape="850.72,465.30 851.53,466.49 851.59,467.39 850.92,467.98 849.51,468.26"/>
    </edge>
    <edge id=":1449754450_6" function="internal">
        <lane id=":1449754450_6_0" index="0" allow="pedestrian delivery bicycle" speed="5.41" length="5.45" shape="851.22,472.85 851.49,471.26 851.30,469.96 850.64,468.97 849.51,468.26"/>
    </edge>
    <edge id=":1449754450_7" function="internal">
        <lane id=":1449754450_7_0" index="0" allow="pedestrian delivery bicycle" speed="5.56" length="10.70" shape="851.22,472.85 852.45,470.14 854.23,468.57 856.57,468.15 859.46,468.87"/>
    </edge>
    <edge id=":1449754450_8" function="internal">
        <lane id=":1449754450_8_0" index="0" allow="pedestrian delivery bicycle" speed="3.65" length="4.67" shape="851.22,472.85 852.33,471.92 853.21,471.76 853.86,472.37 854.30,473.74"/>
    </edge>
    <edge id=":1457124706_0" function="internal">
        <lane id=":1457124706_0_0" index="0" allow="pedestrian delivery bicycle" speed="3.65" length="4.67" shape="838.42,418.25 839.33,417.14 840.17,416.82 840.92,417.29 841.60,418.57"/>
    </edge>
    <edge id=":1457124739_0" function="internal">
        <lane id=":1457124739_0_0" index="0" allow="pedestrian delivery bicycle" speed="5.56" length="8.81" shape="838.76,463.87 836.73,462.72 835.35,461.17 834.63,459.23 834.55,456.89"/>
    </edge>
    <edge id=":1457124739_1" function="internal">
        <lane id=":1457124739_1_0" index="0" allow="pedestrian delivery bicycle" speed="3.65" length="4.67" shape="838.76,463.87 837.95,462.68 837.88,461.79 838.55,461.20 839.97,460.91"/>
    </edge>
    <edge id=":1457124739_2" function="internal">
        <lane id=":1457124739_2_0" index="0" allow="pedestrian delivery bicycle" speed="5.44" length="4.67" shape="837.74,457.21 837.78,458.45 838.16,459.48 838.89,460.30 839.97,460.91"/>
    </edge>
    <edge id=":1457124739_3" function="internal">
        <lane id=":1457124739_3_0" index="0" allow="pedestrian delivery bicycle" speed="3.65" length="4.67" shape="837.74,457.21 836.82,458.33 835.99,458.64 835.23,458.17 834.55,456.89"/>
    </edge>
    <edge id=":1457124764_0" function="internal">
        <lane id=":1457124764_0_0" index="0" allow="pedestrian delivery bicycle" speed="3.65" length="4.67" shape="880.12,477.31 880.93,478.50 880.99,479.39 880.32,479.98 878.91,480.27"/>
    </edge>
    <edge id=":1472911019_0" function="internal">
        <lane id=":1472911019_0_0" index="0" disallow="tram rail_urban rail rail_electric rail_fast ship" speed="13.89" length="4.99" shape="1273.59,410.32 1269.32,407.71"/>
        <lane id=":1472911019_0_1" index="1" disallow="tram rail_urban rail rail_electric rail_fast ship" speed="13.89" length="4.99" shape="1275.25,407.58 1270.99,404.98"/>
    </edge>
    <edge id=":1473258655_0" function="internal">
        <lane id=":1473258655_0_0" index="0" allow="pedestrian bicycle" speed="2.78" length="2.92" width="2.00" shape="1002.58,525.58 1002.23,524.75 1002.30,524.19 1002.78,523.91 1003.68,523.91"/>
    </edge>
    <edge id=":1473258656_0" function="internal">
        <lane id=":1473258656_0_0" index="0" allow="pedestrian delivery bicycle" speed="4.17" length="5.46" shape="1053.86,547.30 1052.64,546.78 1051.44,546.82 1050.26,547.40 1049.11,548.54"/>
    </edge>
    <edge id=":1473258656_1" function="internal">
        <lane id=":1473258656_1_0" index="0" disallow="tram rail_urban rail rail_electric rail_fast ship" speed="2.78" length="9.44" shape="1053.86,547.30 1045.92,542.20"/>
    </edge>
    <edge id=":1473258656_2" function="internal">
        <lane id=":1473258656_2_0" index="0" disallow="tram rail_urban rail rail_electric rail_fast ship" speed="2.78" length="2.34" shape="1053.86,547.30 1053.29,545.98 1053.38,545.09"/>
    </edge>
    <edge id=":1473258656_9" function="internal">
        <lane id=":1473258656_9_0" index="0" disallow="tram rail_urban rail rail_electric rail_fast ship" speed="2.78" length="2.34" shape="1053.38,545.09 1054.15,544.63 1055.59,544.61"/>
    </edge>
    <edge id=":1473258656_3" function="internal">
        <lane id=":1473258656_3_0" index="0" disallow="tram rail_urban rail rail_electric rail_fast ship" speed="2.78" length="9.44" shape="1047.65,539.51 1055.59,544.61"/>
    </edge>
    <edge id=":1473258656_4" function="internal">
        <lane id=":1473258656_4_0" index="0" allow="pedestrian delivery bicycle" speed="4.17" length="5.17" shape="1047.65,539.51 1049.90,541.46 1050.82,543.45"/>
    </edge>
    <edge id=":1473258656_5" function="internal">
        <lane id=":1473258656_5_0" index="0" disallow="tram rail_urban rail rail_electric rail_fast ship" speed="2.78" length="2.34" shape="1047.65,539.51 1048.23,540.83 1048.13,541.72"/>
    </edge>
    <edge id=":1473258656_10" function="internal">
        <lane id=":1473258656_10_0" index="0" allow="pedestrian delivery bicycle" speed="4.17" length="5.55" shape="1050.82,543.45 1050.90,543.62 1050.63,545.98 1049.11,548.54"/>
    </edge>
    <edge id=":1473258656_11" function="internal">
        <lane id=":1473258656_11_0" index="0" disallow="tram rail_urban rail rail_electric rail_fast ship" speed="2.78" length="2.34" shape="1048.13,541.72 1047.36,542.18 1045.92,542.20"/>
    </edge>
    <edge id=":1473258656_6" function="internal">
        <lane id=":1473258656_6_0" index="0" allow="pedestrian delivery bicycle" speed="4.17" length="5.14" shape="1046.62,546.53 1047.35,545.30 1047.48,544.17 1047.00,543.14 1045.92,542.20"/>
    </edge>
    <edge id=":1473258656_7" function="internal">
        <lane id=":1473258656_7_0" index="0" allow="pedestrian delivery bicycle" speed="4.17" length="10.22" shape="1046.62,546.53 1048.72,544.51 1050.91,543.52 1053.20,543.55 1055.59,544.61"/>
    </edge>
    <edge id=":1473258656_8" function="internal">
        <lane id=":1473258656_8_0" index="0" allow="pedestrian delivery bicycle" speed="3.65" length="4.67" shape="1046.62,546.53 1048.00,546.10 1048.87,546.29 1049.24,547.11 1049.11,548.54"/>
    </edge>
    <edge id=":1473258664_0" function="internal">
        <lane id=":1473258664_0_0" index="0" allow="pedestrian delivery bicycle" speed="4.17" length="5.07" shape="1111.99,584.69 1110.73,584.07 1109.60,584.03 1108.59,584.55 1107.71,585.64"/>
    </edge>
    <edge id=":1473258664_1" function="internal">
        <lane id=":1473258664_1_0" index="0" disallow="tram rail_urban rail rail_electric rail_fast ship" speed="2.78" length="9.45" shape="1111.99,584.69 1104.10,579.49"/>
    </edge>
    <edge id=":1473258664_2" function="internal">
        <lane id=":1473258664_2_0" index="0" disallow="tram rail_urban rail rail_electric rail_fast ship" speed="2.78" length="2.34" shape="1111.99,584.69 1111.45,583.35 1111.57,582.47"/>
    </edge>
    <edge id=":1473258664_9" function="internal">
        <lane id=":1473258664_9_0" index="0" disallow="tram rail_urban rail rail_electric rail_fast ship" speed="2.78" length="2.34" shape="1111.57,582.47 1112.35,582.03 1113.79,582.04"/>
    </edge>
    <edge id=":1473258664_3" function="internal">
        <lane id=":1473258664_3_0" index="0" disallow="tram rail_urban rail rail_electric rail_fast ship" speed="2.78" length="9.54" shape="1105.82,576.79 1113.79,582.04"/>
    </edge>
    <edge id=":1473258664_4" function="internal">
        <lane id=":1473258664_4_0" index="0" allow="pedestrian delivery bicycle" speed="4.17" length="5.04" shape="1105.82,576.79 1107.89,578.58 1108.89,580.66"/>
    </edge>
    <edge id=":1473258664_5" function="internal">
        <lane id=":1473258664_5_0" index="0" disallow="tram rail_urban rail rail_electric rail_fast ship" speed="2.78" length="2.34" shape="1105.82,576.79 1106.40,578.11 1106.31,579.00"/>
    </edge>
    <edge id=":1473258664_10" function="internal">
        <lane id=":1473258664_10_0" index="0" allow="pedestrian delivery bicycle" speed="4.17" length="5.21" shape="1108.89,580.66 1108.83,583.01 1107.71,585.64"/>
    </edge>
    <edge id=":1473258664_11" function="internal">
        <lane id=":1473258664_11_0" index="0" disallow="tram rail_urban rail rail_electric rail_fast ship" speed="2.78" length="2.34" shape="1106.31,579.00 1105.54,579.46 1104.10,579.49"/>
    </edge>
    <edge id=":1473258664_6" function="internal">
        <lane id=":1473258664_6_0" index="0" allow="pedestrian delivery bicycle" speed="4.17" length="5.20" shape="1104.96,584.00 1105.55,582.64 1105.60,581.43 1105.12,580.38 1104.10,579.49"/>
    </edge>
    <edge id=":1473258664_7" function="internal">
        <lane id=":1473258664_7_0" index="0" allow="pedestrian delivery bicycle" speed="4.17" length="10.46" shape="1104.96,584.00 1106.78,581.75 1108.86,580.68 1111.19,580.77 1113.79,582.04"/>
    </edge>
    <edge id=":1473258664_8" function="internal">
        <lane id=":1473258664_8_0" index="0" allow="pedestrian delivery bicycle" speed="3.65" length="4.67" shape="1104.96,584.00 1106.26,583.38 1107.15,583.45 1107.64,584.20 1107.71,585.64"/>
    </edge>
    <edge id=":1473258672_0" function="internal">
        <lane id=":1473258672_0_0" index="0" allow="pedestrian delivery bicycle" speed="5.56" length="10.13" shape="1021.32,590.94 1019.35,588.97 1018.49,586.85 1018.72,584.57 1020.04,582.13"/>
    </edge>
    <edge id=":1473258672_1" function="internal">
        <lane id=":1473258672_1_0" index="0" allow="pedestrian delivery bicycle" speed="3.65" length="4.67" shape="1021.32,590.94 1020.84,589.58 1021.00,588.70 1021.80,588.30 1023.24,588.38"/>
    </edge>
    <edge id=":1473258672_2" function="internal">
        <lane id=":1473258672_2_0" index="0" allow="pedestrian delivery bicycle" speed="5.05" length="4.99" shape="1022.61,584.04 1021.96,585.24 1021.84,586.36 1022.27,587.41 1023.24,588.38"/>
    </edge>
    <edge id=":1473258672_3" function="internal">
        <lane id=":1473258672_3_0" index="0" allow="pedestrian delivery bicycle" speed="3.65" length="4.67" shape="1022.61,584.04 1021.25,584.53 1020.37,584.37 1019.97,583.57 1020.04,582.13"/>
    </edge>
    <edge id=":1473258678_0" function="internal">
        <lane id=":1473258678_0_0" index="0" allow="pedestrian bicycle" speed="4.17" length="4.73" shape="1105.67,593.59 1104.48,592.98 1103.39,592.87 1102.40,593.25 1101.51,594.12"/>
    </edge>
    <edge id=":1473258678_1" function="internal">
        <lane id=":1473258678_1_0" index="0" allow="pedestrian bicycle" speed="2.78" length="9.37" width="2.00" shape="1105.67,593.59 1097.88,588.37"/>
    </edge>
    <edge id=":1473258678_2" function="internal">
        <lane id=":1473258678_2_0" index="0" allow="pedestrian bicycle" speed="4.17" length="8.74" shape="1105.67,593.59 1103.61,591.81 1102.54,590.01 1102.48,588.18 1103.41,586.31"/>
    </edge>
    <edge id=":1473258678_3" function="internal">
        <lane id=":1473258678_3_0" index="0" allow="pedestrian bicycle" speed="2.78" length="2.92" width="2.00" shape="1105.67,593.59 1105.33,592.75 1105.41,592.20 1105.90,591.92 1106.80,591.93"/>
    </edge>
    <edge id=":1473258678_4" function="internal">