<?xml version="1.0" encoding="UTF-8"?>

<!-- generated on Sun May  2 21:54:17 2021 by Eclipse SUMO polyconvert Version 1.9.0
<configuration xmlns:xsi="http://www.w3.org/2001/XMLSchema-instance" xsi:noNamespaceSchemaLocation="http://sumo.dlr.de/xsd/polyconvertConfiguration.xsd">

    <input>
        <net-file value="osm.net.xml"/>
        <osm-files value="osm_bbox.osm.xml"/>
        <osm.keep-full-type value="true"/>
        <type-file value="C:\Program%20Files%20(x86)\Eclipse\Sumo\data\typemap\osmPolyconvert.typ.xml"/>
    </input>

    <output>
        <output-file value="osm.poly.xml"/>
    </output>

    <processing>
        <poi-layer-offset value="5"/>
    </processing>

    <report>
        <verbose value="true"/>
    </report>

</configuration>
-->

<additional xmlns:xsi="http://www.w3.org/2001/XMLSchema-instance" xsi:noNamespaceSchemaLocation="http://sumo.dlr.de/xsd/additional_file.xsd">
    <location netOffset="-390301.73,-5819523.68" convBoundary="-1313.56,-4142.82,3675.59,3735.51" origBoundary="13.365446,52.477280,13.436728,52.548335" projParameter="+proj=utm +zone=33 +ellps=WGS84 +datum=WGS84 +units=m +no_defs"/>

    <poly id="100950874" type="building.commercial" color="255,230,230" fill="1" layer="-1.00" shape="1346.591041,805.250460 1327.261240,796.709334 1323.116371,786.385624 1334.849327,766.018409 1348.204252,773.245171 1346.591041,805.250460"/>
    <poly id="100950876" type="building.commercial" color="255,230,230" fill="1" layer="-1.00" shape="1384.928570,747.017352 1372.025787,770.971144 1371.927971,813.803434 1371.996465,819.354591 1373.365520,823.252349 1375.321247,826.669772 1377.958481,829.905206 1382.953956,833.889668 1386.131180,835.455151 1405.943318,843.106755 1437.768451,775.503994 1384.928570,747.017352"/>
    <poly id="100950877" type="building.commercial" color="255,230,230" fill="1" layer="-1.00" shape="1416.778103,782.110499 1397.083627,823.985175 1390.831735,821.808902 1388.155302,820.176701 1386.551583,817.330124 1385.500629,811.856335 1387.209909,780.193899 1412.610749,780.277572 1416.778103,782.110499"/>
    <poly id="100950878" type="building.commercial" color="255,230,230" fill="1" layer="-1.00" shape="1355.563269,823.312344 1360.884207,809.485424 1362.302733,777.573471 1362.223155,773.669444 1360.680572,768.985468 1358.193956,764.889884 1354.241305,761.104925 1350.291743,759.300614 1328.801688,747.925223 1309.547291,782.056846 1307.774102,788.116126 1307.908157,793.866130 1309.599703,800.371721 1316.454201,807.998209 1355.563269,823.312344"/>
    <poly id="104393532" type="building.yes" color="255,230,230" fill="1" layer="-1.00" shape="227.705326,1038.544907 267.147626,1012.792916 268.522395,1005.974303 240.454003,999.168333 237.453716,1010.997370 252.710577,1014.595552 231.443098,1028.435296 225.995035,1036.424370 227.705326,1038.544907"/>
    <poly id="104786904" type="natural.grassland" color="140,196,107" fill="1" layer="-4.00" shape="706.887685,443.598625 712.224925,381.754815 692.828166,380.094473 687.484382,441.938459 706.887685,443.598625"/>
    <poly id="104786906" type="building.yes" color="255,230,230" fill="1" layer="-1.00" shape="721.079372,548.138626 784.403616,559.727064 777.398968,569.819827 773.711052,574.608840 769.237803,580.405684 767.331254,582.885043 753.232716,581.963478 741.853173,581.215143 742.453936,574.046702 763.961131,575.715908 765.291583,568.698156 725.432808,561.973569 723.915980,563.053319 722.066913,572.386047 723.097751,573.564895 722.896135,574.570870 722.049699,574.968044 721.828480,579.668833 718.341341,579.445982 715.037384,579.219057 715.438632,577.118130 719.297303,557.736927 720.906148,547.675119 721.079372,548.138626"/>
    <poly id="104786907" type="building.residential" color="255,230,230" fill="1" layer="-1.00" shape="749.852308,529.783263 748.577129,542.641803 708.887191,535.279311 711.985836,503.095970 725.613896,504.217062 726.809904,490.547959 740.117631,491.609455 738.980341,503.953058 731.162541,503.125502 729.877831,516.774322 737.773314,517.433232 737.312180,522.640101 736.847519,528.603728 749.852308,529.783263"/>
    <poly id="104786910" type="building.yes" color="255,230,230" fill="1" layer="-1.00" shape="827.565663,556.575247 840.237105,540.013849 824.141510,527.430191 824.847433,526.513159 824.066929,525.907362 827.141272,521.910964 827.852447,522.451537 828.795942,521.228779 832.752986,524.267684 833.511706,523.282715 850.293162,536.184989 857.552771,526.865606 867.606549,529.958222 847.436364,556.077928 839.948261,565.803002 827.565663,556.575247"/>
    <poly id="104786915" type="building.yes" color="255,230,230" fill="1" layer="-1.00" shape="825.078238,549.720280 811.550559,547.305878 810.433646,553.551060 823.936149,556.055039 825.078238,549.720280"/>
    <poly id="104786916" type="building.yes" color="255,230,230" fill="1" layer="-1.00" shape="853.371704,481.980628 848.531520,499.068969 886.612191,510.073699 891.413125,496.102009 888.747959,494.992818 886.193661,493.068849 883.491447,490.903359 879.791664,489.360928 865.480964,485.316881 853.371704,481.980628"/>
    <poly id="104991245" type="building.yes" color="255,230,230" fill="1" layer="-1.00" shape="732.504732,865.155900 745.307457,860.954106 747.171383,866.632248 747.609381,866.488972 753.040748,883.026227 753.869748,882.762976 758.012213,895.367467 757.143005,895.653867 762.582086,912.235471 748.849472,916.736104 746.060887,908.240983 745.468097,908.443342 742.555760,899.572636 743.148551,899.370277 739.551482,888.400554 739.005683,888.579613 736.129472,879.808256 736.742618,879.605443 735.315676,875.264026 733.954243,871.121451 734.405561,870.966749 732.504732,865.155900"/>
    <poly id="104991246" type="building.yes" color="255,230,230" fill="1" layer="-1.00" shape="635.669163,909.107071 634.386640,905.463507 649.606434,900.083731 650.900534,903.638019 635.669163,909.107071"/>
    <poly id="105187865" type="building.office" color="255,230,230" fill="1" layer="-1.00" shape="245.611677,429.081798 344.030463,436.586692 342.820748,448.075206 336.960158,503.900078 334.996774,525.409207 333.022079,547.018739 195.283420,535.597093 185.136941,534.755708 149.216162,531.775640 156.266095,455.170722 191.632147,457.907327 190.893949,466.180576 165.780159,464.149410 163.684713,489.433872 188.696357,491.456179 188.168171,497.888665 187.740294,503.039223 165.810357,501.315215 163.718986,526.477184 185.603061,528.280098 186.538189,516.975712 197.039245,517.887068 196.079014,528.980586 211.549028,530.203729 212.669784,516.269067 223.775161,517.189225 224.207372,511.927297 246.220884,513.749845 245.418446,523.404352 309.302556,528.675926 313.529168,477.817061 324.403181,478.709234 325.516341,465.331164 275.865089,461.232453 276.785062,450.150986 262.061883,448.944325 259.991653,473.860951 242.017760,472.382032 244.831384,438.513254 245.611677,429.081798"/>
    <poly id="105187865#1" type="landuse.commercial" color="209,209,204" fill="1" layer="-3.00" shape="245.611677,429.081798 344.030463,436.586692 342.820748,448.075206 336.960158,503.900078 334.996774,525.409207 333.022079,547.018739 195.283420,535.597093 185.136941,534.755708 149.216162,531.775640 156.266095,455.170722 191.632147,457.907327 190.893949,466.180576 165.780159,464.149410 163.684713,489.433872 188.696357,491.456179 188.168171,497.888665 187.740294,503.039223 165.810357,501.315215 163.718986,526.477184 185.603061,528.280098 186.538189,516.975712 197.039245,517.887068 196.079014,528.980586 211.549028,530.203729 212.669784,516.269067 223.775161,517.189225 224.207372,511.927297 246.220884,513.749845 245.418446,523.404352 309.302556,528.675926 313.529168,477.817061 324.403181,478.709234 325.516341,465.331164 275.865089,461.232453 276.785062,450.150986 262.061883,448.944325 259.991653,473.860951 242.017760,472.382032 244.831384,438.513254 245.611677,429.081798"/>
    <poly id="105187866" type="building.yes" color="255,230,230" fill="1" layer="-1.00" shape="259.991653,473.860951 257.552724,503.236890 247.168483,502.389560 246.220884,513.749845 224.207372,511.927297 224.748675,505.472268 215.200680,504.684207 216.007860,494.940566 216.761867,485.854648 240.733954,487.833692 242.017760,472.382032 259.991653,473.860951"/>
    <poly id="105187866#1" type="landuse.commercial" color="209,209,204" fill="1" layer="-3.00" shape="259.991653,473.860951 257.552724,503.236890 247.168483,502.389560 246.220884,513.749845 224.207372,511.927297 224.748675,505.472268 215.200680,504.684207 216.007860,494.940566 216.761867,485.854648 240.733954,487.833692 242.017760,472.382032 259.991653,473.860951"/>
    <poly id="105733615" type="building.yes" color="255,230,230" fill="1" layer="-1.00" shape="357.252482,932.085158 358.686913,913.948391 371.607248,914.728180 369.902163,933.816836 357.252482,932.085158"/>
    <poly id="105733616" type="building.residential" color="255,230,230" fill="1" layer="-1.00" shape="303.632976,930.311602 303.437871,932.819690 303.243014,935.338900 301.748043,935.261020 281.589727,933.452475 272.517209,932.642579 266.770035,932.114474 264.940406,931.943935 257.765103,931.291968 250.388065,927.384107 252.932495,922.486693 253.406560,922.743163 255.722472,917.338985 261.973016,920.648878 265.869723,920.984649 287.161034,922.767817 287.738973,915.521908 288.338831,908.041828 288.534427,905.555983 289.731157,905.651650 302.173838,906.619971 304.099445,906.832891 305.604439,907.055208 305.381946,909.552780 305.159951,912.072596 303.670762,911.950076 303.409155,915.127310 303.323965,916.175216 302.164394,930.199749 303.632976,930.311602"/>
    <poly id="105733620" type="building.commercial" color="255,230,230" fill="1" layer="-1.00" shape="299.679451,960.244379 270.411042,957.760328 272.517209,932.642579 281.589727,933.452475 301.748043,935.261020 300.710476,947.758336 299.679451,960.244379"/>
    <poly id="105733622" type="building.yes" color="255,230,230" fill="1" layer="-1.00" shape="362.529473,946.210766 378.027984,947.556155 379.003034,934.681917 372.318937,934.141221 372.069853,936.361191 369.725469,935.935040 369.902163,933.816836 357.252482,932.085158 356.376257,943.911194 354.918202,944.878476 357.015244,947.602444 362.356915,947.906027 362.529473,946.210766"/>
    <poly id="105733627" type="building.residential" color="255,230,230" fill="1" layer="-1.00" shape="244.080417,932.755103 243.994390,933.157623 242.762038,933.897340 241.858155,937.489533 240.131354,937.060768 227.381212,933.873941 227.176448,933.822880 229.922703,928.542600 230.176945,928.681577 232.539357,924.144307 237.628937,914.382830 252.932495,922.486693 250.388065,927.384107 247.193462,925.663950 245.443283,926.315091 242.896874,931.123531 243.827668,932.682859 244.080417,932.755103"/>
    <poly id="105733628" type="building.residential" color="255,230,230" fill="1" layer="-1.00" shape="297.780590,982.798113 268.519594,980.336167 270.085201,961.706811 270.411042,957.760328 299.679451,960.244379 299.571849,961.504212 300.421836,961.574244 300.157005,964.606891 299.313802,964.536707 298.729893,971.515685 298.134407,978.583942 298.977607,978.654126 298.713027,981.697896 297.876611,981.627560 297.780590,982.798113"/>
    <poly id="105733634" type="building.hotel" color="255,230,230" fill="1" layer="-1.00" shape="392.334342,878.768188 386.953713,878.242886 385.239150,902.383711 372.704814,901.261438 362.614398,900.462972 340.656372,898.916915 339.030803,896.638659 341.794723,863.572231 343.759283,861.881463 383.674002,865.107542 393.645350,866.042244 393.541359,866.856886 392.334342,878.768188"/>
    <poly id="105733636" type="building.yes" color="255,230,230" fill="1" layer="-1.00" shape="267.999493,986.523658 268.519594,980.336167 297.780590,982.798113 297.409329,987.446653 297.038069,992.095193 295.610903,993.228719 284.971850,990.651118 267.999493,986.523658"/>
    <poly id="105733640" type="building.residential" color="255,230,230" fill="1" layer="-1.00" shape="250.816624,913.153340 251.216697,914.958212 255.722472,917.338985 253.406560,922.743163 252.994546,922.529817 237.628937,914.382830 237.361126,914.244156 241.715699,905.912330 246.076823,897.569234 246.337849,897.708059 257.240156,903.551242 253.085670,911.422346 251.611218,911.655598 250.816624,913.153340"/>
    <poly id="105733641" type="building.yes" color="255,230,230" fill="1" layer="-1.00" shape="413.703778,868.231829 408.674095,867.921225 393.541359,866.856886 392.334342,878.768188 392.231673,879.337991 413.986900,881.222637 414.925086,870.341088 413.703778,868.231829"/>
    <poly id="105733647" type="building.yes" color="255,230,230" fill="1" layer="-1.00" shape="395.972204,949.002789 378.027984,947.556155 379.003034,934.681917 397.241993,936.255510 395.972204,949.002789"/>
    <poly id="105733649" type="building.office" color="255,230,230" fill="1" layer="-1.00" shape="280.215688,832.466031 280.476120,831.970594 280.867440,831.561254 281.321558,831.228405 281.832185,830.994442 282.378970,830.859820 282.941559,830.824995 283.499850,830.901543 284.033240,831.078796 284.521377,831.357210 295.009311,841.738705 307.877828,854.470623 308.089799,854.844229 308.234674,855.252717 308.312205,855.684965 305.855863,885.495265 304.552359,901.281186 304.099445,906.832891 302.173838,906.619971 289.731157,905.651650 288.534427,905.555983 288.698116,904.072344 268.636278,893.526456 271.491148,888.243775 258.186739,879.394129 256.505566,878.274421 256.298811,878.134382 264.025955,863.384424 280.215688,832.466031"/>
    <poly id="105733654" type="building.residential" color="255,230,230" fill="1" layer="-1.00" shape="253.499466,883.471469 256.298811,878.134382 256.505566,878.274421 258.186739,879.394129 271.491148,888.243775 268.636278,893.526456 265.009788,891.615639 263.211360,892.234469 257.240156,903.551242 246.337849,897.708059 251.421697,887.991237 253.732860,883.588657 253.499466,883.471469"/>
    <poly id="105733655" type="building.yes" color="255,230,230" fill="1" layer="-1.00" shape="358.686913,913.948391 359.505585,903.191899 362.281433,903.486007 362.614398,900.462972 372.704814,901.261438 371.607248,914.728180 358.686913,913.948391"/>
    <poly id="105733781" type="building.apartments" color="255,230,230" fill="1" layer="-1.00" shape="545.677381,982.006516 546.111734,988.094796 540.027609,987.974481 540.269820,982.093673 528.476993,981.644396 528.946373,967.991409 544.582685,968.521929 545.677381,982.006516"/>
    <poly id="105733782" type="building.apartments" color="255,230,230" fill="1" layer="-1.00" shape="528.476993,981.644396 528.156860,987.682729 526.147570,987.671887 526.435319,995.098755 526.467554,996.544633 520.490990,996.377434 520.670793,986.480926 521.571820,986.405199 522.083965,984.413055 520.637123,982.230907 510.189749,981.851825 509.300026,983.652092 509.457090,986.130060 509.172411,986.147535 509.187045,996.240007 503.430541,996.201453 504.048657,984.047380 504.944749,967.313637 528.946373,967.991409 528.476993,981.644396"/>
    <poly id="105733783" type="building.apartments" color="255,230,230" fill="1" layer="-1.00" shape="455.456820,1009.545285 466.801599,1010.905721 468.729469,1002.094109 472.130531,1002.730417 472.413737,1000.821267 469.154393,1000.148415 470.010529,996.234632 459.181794,994.884932 455.456820,1009.545285"/>
    <poly id="105733786" type="building.apartments" color="255,230,230" fill="1" layer="-1.00" shape="572.826604,1020.682086 571.437986,984.258797 569.935170,984.436948 569.861252,982.947488 559.918380,982.668334 560.041837,984.857733 556.601378,984.889903 557.981397,1016.049996 559.439195,1015.984122 559.675086,1021.086463 572.826604,1020.682086"/>
    <poly id="105733787" type="building.apartments" color="255,230,230" fill="1" layer="-1.00" shape="569.861252,982.947488 570.629490,969.298977 544.582685,968.521929 545.677381,982.006516 559.918380,982.668334 569.861252,982.947488"/>
    <poly id="105733790" type="building.dormitory" color="255,230,230" fill="1" layer="-1.00" shape="611.373727,990.312648 616.120222,1003.816044 600.591647,1006.287369 592.822780,1007.317291 591.677876,1002.235203 602.129693,999.465228 600.110693,993.534654 611.373727,990.312648"/>
    <poly id="105733792" type="building.apartments" color="255,230,230" fill="1" layer="-1.00" shape="597.519240,983.844557 569.861252,982.947488 570.629490,969.298977 604.391554,970.293742 611.373727,990.312648 600.110693,993.534654 597.519240,983.844557"/>
    <poly id="105733795" type="building.apartments" color="255,230,230" fill="1" layer="-1.00" shape="616.120222,1003.816044 620.945776,1017.517981 608.349292,1017.854225 601.654315,1018.036763 600.591647,1006.287369 616.120222,1003.816044"/>
    <poly id="105733796" type="building.yes" color="255,230,230" fill="1" layer="-1.00" shape="527.286569,1021.407843 526.467554,996.544633 526.435319,995.098755 533.652107,995.182675 534.087357,1021.100441 527.286569,1021.407843"/>
    <poly id="105733797" type="building.apartments" color="255,230,230" fill="1" layer="-1.00" shape="459.181794,994.884932 464.537781,967.536034 467.434807,965.657600 504.944749,967.313637 504.048657,984.047380 483.617204,983.367999 483.342716,989.015851 481.605507,990.857280 480.917212,995.601892 481.321100,996.060246 481.039130,998.025006 472.063488,997.290479 472.257169,996.540605 470.010529,996.234632 459.181794,994.884932"/>
    <poly id="109089263" type="building.residential" color="255,230,230" fill="1" layer="-1.00" shape="1095.796169,972.846303 1097.516789,990.445427 1099.257055,990.262173 1100.406835,1003.545312 1099.744231,1003.660156 1098.423694,1010.833377 1104.054090,1011.921422 1112.137615,975.187922 1111.629315,974.609430 1112.447721,972.031929 1110.120203,972.361731 1109.585137,971.494514 1095.796169,972.846303"/>
    <poly id="109089264" type="building.residential" color="255,230,230" fill="1" layer="-1.00" shape="1077.889520,1005.202010 1083.527945,1005.121453 1083.517337,1004.643200 1088.905497,1004.601583 1088.915364,1005.046469 1094.242962,1005.028457 1092.596833,987.116107 1091.349451,986.264691 1078.423567,987.052134 1077.065547,988.250658 1077.889520,1005.202010"/>
    <poly id="11548677" type="natural.water" color="181,209,209" fill="0" layer="-4.00" shape="1857.554310,-212.125706 1827.674228,-229.182884 1694.972724,-299.022071 1686.653630,-306.527795 1677.054785,-313.571314 1674.350386,-315.525768 1657.958145,-327.382336 1616.147948,-355.836832 1563.068394,-382.395373 1551.410384,-387.056416 1528.365728,-396.384412 1521.353587,-398.488476 1516.731809,-399.643834 1501.161643,-403.450567 1435.791273,-411.320179 1369.466679,-407.372597 1365.200288,-406.577218 1362.668969,-405.608781 1359.613720,-403.771933 1356.665527,-401.392199 1354.563501,-399.431769 1352.970170,-397.493716 1351.712689,-395.718876 1333.277387,-360.236997 1325.630947,-345.590870 1211.682581,-149.693536 1208.644699,-144.629968 1206.148813,-139.923357 1152.894792,-33.721343 1138.300052,7.674063 1100.339676,103.589770 1092.297216,119.903115 1014.146850,271.280709 1009.425184,308.429323 981.408416,414.162631 961.127532,469.282873 961.915941,470.856620 961.991725,473.047079 948.836732,494.147821 947.053972,493.953727 937.972460,510.190301 883.939363,549.558284 801.454645,648.858642 790.480655,662.066372 778.206812,676.949930 766.085478,691.362768 707.365139,762.740066 710.028071,764.973097 700.467460,776.703000 697.771599,774.515218 695.499060,778.538372 690.108603,780.928398"/>
    <poly id="11548679" type="natural.water" color="181,209,209" fill="0" layer="-4.00" shape="1531.927407,92.960770 1513.171658,107.751808 1478.316543,151.240533 1433.003036,216.002945 1425.137913,228.094441 1415.152343,243.448701 1408.594384,253.252430 1356.803377,339.646219 1350.305743,351.551817 1348.972757,350.824628 1347.041708,354.361411 1348.381479,355.088449 1330.010642,388.432560 1330.384367,389.370137 1319.592107,408.425700 1318.323819,409.088039 1314.396225,408.596317 1311.295598,408.664933 1310.555921,408.981747 1296.356769,432.663951 1296.620405,434.761231 1297.239800,436.984170 1298.903084,438.527475 1300.752093,441.101537 1299.704281,443.750841 1296.144832,450.383777 1295.053363,452.900517 1293.611771,456.159428 1281.061080,478.558908 1243.226407,546.062058 1220.076401,588.815159 1219.381066,588.374328 1215.055269,596.559917 1215.610725,596.814676 1200.126674,624.342433 1199.839247,624.849543 1199.250594,625.240923 1198.688470,625.297887 1198.210356,625.163820 1197.247720,624.606511 1197.878822,623.680066 1194.696110,621.569567 1193.770058,622.969908 1178.500111,645.140617 1184.293176,648.650982 1186.140695,651.158268 1185.754272,654.549624 1174.645662,675.203814 1164.038535,691.529405 1150.469263,703.747821 1139.949510,709.923148 1071.268431,737.306681 1070.315175,735.335981 959.402372,781.673696 936.849920,793.101849 885.825864,811.038048 848.370080,822.241408 760.623506,840.973068 756.955299,841.755712 741.819570,845.130297 672.112970,857.375396 605.581673,864.676845 591.651760,866.111080 559.193860,867.323972 507.895722,864.661849 413.490651,858.377464 337.436140,851.673923 335.796908,849.696420 310.992964,833.792567 238.977535,761.847697 153.927557,682.016507 101.628587,636.862015 57.985364,613.936581 -24.928575,576.067589 -48.349236,565.364502 -106.797016,539.778906 -118.215003,534.304143 -184.221032,529.185882 -219.106305,527.298043 -249.542657,525.232680 -278.509483,526.339291 -288.063374,527.711119 -292.468203,528.644621 -302.088264,530.696755 -315.034793,534.848875 -326.438950,539.066530 -339.475863,544.934418 -351.852715,551.477429 -363.173142,557.907709 -373.990018,564.693914 -384.663458,572.122329 -393.931501,579.864136 -401.566594,586.567755 -406.256768,591.714061 -409.155623,595.017406 -414.412592,601.823369 -418.193365,606.960369 -423.533698,615.793466 -427.099102,623.262456 -429.831161,629.755724 -432.275953,638.156506 -434.418626,650.634376 -436.460768,667.883787 -438.801780,686.330590 -441.000360,705.375090 -443.793463,727.259411 -445.660187,737.516662 -447.916048,747.070492 -454.239483,767.109126 -460.472284,783.328916 -468.364463,802.724069 -479.617064,822.695590 -484.353546,829.389782 -487.594967,833.145999 -492.336269,837.815059 -498.156603,843.699073 -522.050848,863.821654 -556.795252,825.890331 -542.223687,811.652594 -534.147298,803.469937 -528.702416,795.379909 -523.489533,788.441267 -512.968127,770.366689 -511.393189,767.660585 -496.639640,739.475832 -491.673643,726.990039 -488.436042,700.132708 -485.805636,680.377417 -479.126422,626.368866 -464.890823,590.217298 -455.026361,574.895074 -444.200646,561.565375 -440.506435,557.709993 -423.501124,541.771019 -392.250218,520.582281 -379.309535,512.546508 -367.101732,506.029485 -358.576466,501.776280 -340.470347,494.025140 -322.879961,487.487449 -302.594557,481.256507 -288.319699,477.909175 -275.433768,475.282990 -257.436753,472.942689 -240.029624,471.539296 -226.661755,471.027818 -214.177233,471.081458 -212.366291,473.132829 -190.255735,475.630042 -153.143136,481.474118 -129.395463,486.449747 -105.934554,492.867393 -78.755319,502.551245 -51.266816,513.318828 -3.870551,536.148141 30.248642,551.730605 64.332942,567.280698 98.824710,583.456180 130.248838,599.967591 131.318134,598.307898 238.129656,697.492975 236.889320,698.789254 243.505528,705.084308 250.163170,711.411827 251.396722,710.115703 291.504869,747.765806 290.179319,749.197508 295.313069,753.856595 300.379961,758.561690 301.698727,757.130143 310.194379,764.918918 345.995925,793.040194 364.038159,800.371085 365.835817,800.931846 413.181292,807.408486 413.050655,810.070915 416.169568,810.223868 416.300206,807.561438 456.310121,809.561954 478.314329,810.729170 504.719804,812.332473 537.908483,812.827732 572.032682,811.444048 591.302657,809.924167 633.544758,804.576651 653.958839,795.909838 690.108603,780.928398"/>
    <poly id="120456813" type="landuse.commercial" color="209,209,204" fill="1" layer="-3.00" shape="501.104043,791.114740 505.023915,735.255469 436.126626,727.545054 435.927876,731.110344 435.523344,738.229952 435.317562,741.784270 434.697907,751.735107 435.856198,751.931817 434.715286,767.725185 433.767918,779.719698 432.999313,779.647826 432.480859,788.962128 464.228067,789.945290 488.910321,790.362907 501.104043,791.114740"/>
    <poly id="120456814" type="amenity.university" color="237,199,199" fill="1" layer="-1.00" shape="516.711454,561.670395 516.844643,562.468617 553.923456,565.659236 560.541418,566.257308 587.772372,568.599389 592.210940,514.331076 610.481070,515.715650 619.089951,516.402990 622.016497,516.749534 631.732503,517.467877 631.148819,523.567701 629.801246,535.904895 629.363059,541.222544 629.344590,541.612423 631.501986,541.864824 630.787365,547.266523 630.752602,547.534361 629.569053,559.311520 618.155107,558.241533 616.971208,571.220491 655.725888,574.385677 656.855586,574.516312 662.240293,515.453262 662.611813,510.493187 663.641046,500.622303 666.221967,465.624028 765.333167,474.434979 778.022541,388.169494 785.614408,302.206588 710.227199,295.637932 634.690232,289.062636 630.094436,340.574710 620.684535,481.326497 613.548606,480.639728 595.660729,480.270367 561.917289,477.216512 540.079190,475.344124 539.296453,484.386101 531.774532,483.741437 526.908521,540.122480 526.837676,540.902996 525.361952,540.780104 505.441830,539.065424 504.799616,546.490766 512.797606,547.180411 512.915624,545.775694 517.200315,546.147535 517.076008,547.574647 517.892139,547.645475 516.721393,561.202811 516.711454,561.670395"/>
    <poly id="121673258" type="landuse.construction" color="194,194,130" fill="1" layer="-3.00" shape="1186.857599,146.728016 1126.967710,105.892654 1122.023340,103.643198 1118.498540,109.084838 1130.197461,118.072559 1129.156223,119.486589 1129.673737,119.864585 1124.730954,126.261241 1126.793238,127.728883 1125.469739,129.271574 1123.306740,130.610321 1120.820166,131.132799 1118.929462,130.974414 1117.143503,130.335220 1115.578870,129.268271 1113.220190,132.191481 1091.449712,163.119283 1092.921202,163.965737 1093.794865,164.792064 1094.516170,165.788683 1095.228829,167.620065 1095.351680,169.486779 1095.108636,170.771843 1094.612572,171.973496 1093.524847,173.433075 1092.061751,172.352755 1086.431171,180.789930 1103.067248,192.628053 1080.459807,229.572257 1059.328732,273.994972 1059.567658,283.848739 1078.390000,285.311854 1075.492079,289.014850 1088.702771,291.804240 1101.289221,295.831542 1114.314314,300.661468 1137.940893,315.215647 1158.739478,326.527705 1168.349442,315.710145 1188.063610,288.188761 1121.029241,245.909431 1186.857599,146.728016"/>
    <poly id="121717655" type="building.yes" color="255,230,230" fill="1" layer="-1.00" shape="928.229914,497.576506 936.057833,485.106636 902.653148,464.283224 898.360823,476.707989 918.735393,489.408273 917.692702,491.056066 928.229914,497.576506"/>
    <poly id="121717767" type="leisure.park" color="207,245,201" fill="1" layer="-2.00" shape="1026.429378,584.361932 1051.262811,603.184144 1052.932651,601.043980 1052.182903,600.292806 1051.696762,599.491275 1051.442773,598.751359 1051.344335,597.985737 1051.383066,597.283838 1051.544165,596.590351 1051.900287,595.814645 1052.414426,595.124455 1053.047109,594.576293 1053.777983,594.170613 1054.532911,593.931313 1055.325216,593.846971 1056.612666,594.052091 1057.318871,594.370254 1057.918497,594.779802 1060.057706,592.072848 1062.593256,594.075213 1063.448472,593.154905 1064.292463,592.646569 1065.243155,592.358418 1066.110830,592.305789 1066.969377,592.453660 1067.880349,592.822920 1068.667102,593.406360 1069.239219,594.105838 1069.644191,594.920299 1069.844887,595.705909 1069.876465,596.517524 1069.751506,597.310357 1069.462486,598.051191 1068.797483,598.978406 1072.030100,601.499440 1070.062845,604.002278 1071.008352,605.316620 1071.219904,605.979585 1071.310075,606.678625 1071.272327,607.425013 1071.098150,608.141044 1070.800373,608.793051 1070.399349,609.380582 1069.814650,609.949932 1069.125225,610.388073 1068.317503,610.695307 1067.464880,610.814368 1066.751278,610.774558 1066.048283,610.600982 1065.149650,610.175811 1063.314884,612.531054 1081.578617,626.202398 1039.463314,681.706489 1050.742176,690.169181 1116.289789,604.089917 1045.359657,558.003435 1026.429378,584.361932"/>
    <poly id="125513279" type="building.industrial" color="255,230,230" fill="1" layer="-1.00" shape="1496.618194,190.272342 1489.288301,184.503270 1485.641813,181.379087 1488.888315,176.845206 1488.543656,176.608013 1489.775360,174.900538 1519.600990,195.996136 1518.108934,198.210094 1514.572724,203.150948 1497.116299,190.695314 1496.618194,190.272342"/>
    <poly id="125513281" type="building.residential" color="255,230,230" fill="1" layer="-1.00" shape="1464.804824,204.261551 1456.359709,198.405895 1454.443238,197.079554 1461.362942,187.356920 1461.298927,187.224804 1463.445478,184.217434 1464.907030,182.159919 1466.105291,180.475432 1466.235190,180.517072 1473.187884,170.749217 1485.641813,181.379087 1489.288301,184.503270 1496.618194,190.272342 1497.116299,190.695314 1514.572724,203.150948 1518.108934,198.210094 1522.598943,201.415819 1519.997954,205.056343 1523.660489,207.679455 1526.261479,204.038933 1536.820043,211.539427 1529.481127,221.649546 1526.492603,225.877259 1521.702877,232.459290 1509.982343,223.983013 1509.888335,224.029600 1507.016152,221.845271 1507.257370,221.394840 1510.998243,216.193525 1511.515834,215.347525 1513.075732,213.132065 1514.068824,211.685801 1511.420634,209.808094 1502.540912,203.327688 1498.009444,200.089515 1494.402947,204.920661 1492.579026,207.475786 1488.641985,213.015276 1482.097593,208.386130 1481.814738,208.180955 1485.751775,202.641460 1487.575696,200.086332 1491.259432,195.064306 1485.238696,190.479225 1485.726934,189.533721 1478.683910,184.459364 1475.182390,189.432864 1473.720837,191.490376 1467.055260,201.040463 1464.804824,204.261551"/>