<?xml version="1.0" encoding="UTF-8"?>

<!-- generated on Sun May  2 21:54:20 2021 by Eclipse SUMO duarouter Version 1.9.0
<configuration xmlns:xsi="http://www.w3.org/2001/XMLSchema-instance" xsi:noNamespaceSchemaLocation="http://sumo.dlr.de/xsd/duarouterConfiguration.xsd">

    <input>
        <net-file value="C:\Users\SysSoft\Sumo\2021-05-02-21-53-43\osm.net.xml"/>
        <route-files value="C:\Users\SysSoft\Sumo\2021-05-02-21-53-43\osm.passenger.trips.xml"/>
    </input>

    <output>
        <output-file value="routes.rou.xml"/>
        <alternatives-output value="routes.rou.alt.xml"/>
    </output>

    <time>
        <begin value="0"/>
        <end value="3600"/>
    </time>

    <report>
        <no-warnings value="true"/>
        <ignore-errors value="true"/>
        <no-step-log value="true"/>
    </report>

</configuration>
-->

<routes xmlns:xsi="http://www.w3.org/2001/XMLSchema-instance" xsi:noNamespaceSchemaLocation="http://sumo.dlr.de/xsd/routes_file.xsd">
    <vType id="veh_passenger" vClass="passenger"/>
    <vehicle id="veh0" type="veh_passenger" depart="0.00" departLane="best">
        <route edges="340498982#2 169195795#7 114667396#0 340498976#2 340498976#3 -122820534#1 -122820534#0"/>
    </vehicle>
    <vehicle id="veh1" type="veh_passenger" depart="1.34" departLane="best" departSpeed="max">
        <route edges="-51167934#3 -51167934#2 -51167934#0 -437325047#2 -437325047#1 -437325047#0 4610362#0 4610362#1 4610362#2 4610362#3 4610362#4 4610362#5 4610362#6 4610362#7 4610362#8 30721662#0 30721662#1 30721662#2 30721662#3 831659093#0 831659093#1 23809670#1 23809670#2 23809670#3 28016312#0 28016312#1 156364556#1 202157002#1 202157002#2 24913519#1 24913519#2 541763975 202156995#0 202156995#1 4067932#1 339201219 541763974 61584187#1 61584187#2 61584187#3 61584187#4 54048863 15971197#0 15971197#1 4611699 751602168 169195795#0 169195795#1 169195795#4 169195795#5 169195795#6 169195795#7 114667396#0 -15977422#0 -195411605#0 -31313667#2 -31313667#1 -31313667#0 -492340367#0 -339201185 24243101 24243107#0 24243107#1 168940071#0 168940071#1 -4610374"/>
    </vehicle>
    <vehicle id="veh2" type="veh_passenger" depart="2.68" departLane="best" departSpeed="max">
        <route edges="374734385#0 541295978#1 389705415#1 -541295974 6228081 -222328410 -465376254 -4402228 190447768#2 195411602#1 465376240#0 195411604 83517336#0 83517336#2 153698394#1 153698394#2 340498982#0 340498982#2 340498982#3 340498982#4"/>
    </vehicle>
    <vehicle id="veh3" type="veh_passenger" depart="4.02" departLane="best">
        <route edges="54048862#0 54048862#1 54048862#3 831694400 23013165#0 23013165#1 23013165#2 4611698#1 202156994#0 -534588621#1 -534588621#0 606078071#0 -751595930 -156364553#0"/>
    </vehicle>
    <vehicle id="veh4" type="veh_passenger" depart="5.35" departLane="best" departSpeed="max">
        <route edges="-437325051 -111251382#3 541295978#1 389705415#1 -541295974 6228081 -222328410 -465376254 -4402228 190447768#2 195411602#1 465376240#0 195411604 11483007#0 -169999355#2 -194069450#2 194069450#0"/>
    </vehicle>
    <vehicle id="veh5" type="veh_passenger" depart="6.69" departLane="best">
        <route edges="-156364570#1 156364570#1 156364570#2 156364556#1 202157002#1 202157002#2 -534588621#1 -534588621#0 606078071#0 -751595928#1 -136571494#3 -136571494#2 -136571494#1 -136571494#0 38208961 -202817674#5 -202817674#4 -202817674#3 -202817674#2 -43156728#4 -43156728#0"/>
    </vehicle>
    <vehicle id="veh6" type="veh_passenger" depart="8.03" departLane="best" departSpeed="max">
        <route edges="342968607#0 461526152#0 340498982#0 340498982#2 340498982#3 340498982#4 340498982#5 340498982#8 340498982#9 354528932 251884680 339201217#0 339201217#1 15971196 54048862#0 54048862#1 54048862#3 -23121445#5 -23121445#4 -23121445#3 -23121445#2 -23121445#1 -23121445#0 202156991#0 202156991#1 202156991#2"/>
    </vehicle>
    <vehicle id="veh7" type="veh_passenger" depart="9.37" departLane="best" departSpeed="max">
        <route edges="-437325051 -111251382#3 541295978#1 389705415#1 30720544#0 30720544#1 -168940071#3 -168940071#2 -168940071#1 -168940071#0 24243107#2"/>
    </vehicle>
    <vehicle id="veh8" type="veh_passenger" depart="10.71" departLane="best" departSpeed="max">
        <route edges="454285423#0 -454285423#0 4610351#0 4610351#1 30721660#4 30721660#5 4610362#0 4610362#1 4610362#2 4610362#3 4610362#4 4610362#5 4610362#6 4610362#7 4610362#8 30721662#0 30721662#1 30721662#2 30721662#3 831659093#0 831659093#1 23809670#1 23809670#2 23809670#3 28016312#0 28016312#1 156364556#1 202157002#1 202157002#2 24913519#1 24913519#2 541763975 202156995#0 202156995#1 4067932#1 339201219 541763974 61584187#1 61584187#2 61584187#3 61584187#4 54048863 15971197#0 15971197#1 4611699 751602168 169195795#0 169195795#1 169195795#4 169195795#5 169195795#6 169195795#7 169195795#8 169195795#9 882389494 340498988#0 169999355#0 -111833185#1 -111833185#0"/>
    </vehicle>
    <vehicle id="veh9" type="veh_passenger" depart="12.05" departLane="best">
        <route edges="4412868 -11483007#2 22972195#2 465376239 465376255#2 190447767 190447766#1 4402228 465376254 34848160#1 34848160#2 34848160#3"/>
    </vehicle>
    <vehicle id="veh10" type="veh_passenger" depart="13.38" departLane="best" departSpeed="max">
        <route edges="111833185#0 111833185#1 -169999355#2 461526152#0 -66071373#3 -243854725#2"/>
    </vehicle>
    <vehicle id="veh11" type="veh_passenger" depart="14.72" departLane="best" departSpeed="max">
        <route edges="83517332#0 83517332#1 84960595 316746323#0 316746323#1 743631784 370359204#0 370359204#1 370359204#2 77348147 156364570#0 156364570#1 156364570#2 156364556#1 202157002#1 202157002#2 24913519#1 24913519#2 541763975 202156995#0 202156995#1 4067932#1 339201219 541763974 61584187#1 61584187#2 61584187#3 61584187#4 54048863 15971197#0 15971197#1 4611699 751602168 169195795#0 169195795#1 169195795#4 169195795#5 169195795#6"/>
    </vehicle>
    <vehicle id="veh12" type="veh_passenger" depart="16.06" departLane="best" departSpeed="max">
        <route edges="-202156991#2 -202156991#1 -202156991#0 23121445#0 23121445#1 23121445#2 23121445#3 23121445#4 23121445#5 831694400 23013165#0 23013165#1 23013165#2 4611698#1 202156994#0 4773465#1 4773465#2 4773465#3 490365295#0 490365295#1 -156364570#3 -156364570#1"/>
    </vehicle>
    <vehicle id="veh13" type="veh_passenger" depart="17.40" departLane="best" departSpeed="max">
        <route edges="4610374 168940071#2 168940071#3 42103020#0 42103020#2 541295978#1 389705415#1 -541295974 6228081 -222328410 -465376254 -4402228 190447768#2 195411602#1 465376240#0 195411604 83517336#0 83517336#2 153698394#1 153698394#2 340498982#0 340498982#2 340498982#3 340498982#4 340498982#5 340498982#8 340498982#9 354528932 251884680 339201217#0 339201217#1 15971196 54048862#0 54048862#1 54048862#3 831694400 23013165#0 23013165#1 23013165#2 4611698#1 202156994#0 24913519#1 24913519#2"/>
    </vehicle>
    <vehicle id="veh14" type="veh_passenger" depart="18.74" departLane="best" departSpeed="max">
        <route edges="454285423#0 -454285423#0 4610351#0 4610351#1 30721660#4 30721660#5 4610362#0 4610362#1 4610362#2 4610362#3 4610362#4 4610362#5 4610362#6 4610362#7 4610362#8 30721662#0 30721662#1 30721662#2 30721662#3 831659093#0 831659093#1 23809670#1 23809670#2 23809670#3 28016312#0 28016312#1 156364556#1 202157002#1 202157002#2 24913519#1 24913519#2 541763975 202156995#0 202156995#1 4067932#1 339201219 541763974 61584187#1 61584187#2 61584187#3 61584187#4 54048863 15971197#0 15971197#1 4611699 751602168 169195795#0 169195795#1 169195795#4 169195795#5 169195795#6 169195795#7 169195795#8 169195795#9 882389494 340498988#0 169999355#0 -11483007#2 22972195#2 465376239 465376255#2 190447767 190447766#1 4402228 465376254 222328410 -6228081 541295974 30720544#0 30720544#1 42103020#0 42103020#2 42103021"/>
    </vehicle>
    <vehicle id="veh15" type="veh_passenger" depart="20.08" departLane="best" departSpeed="max">
        <route edges="243854725#0 66071373#1 882389494 340498988#0 169999355#0 -11483007#2 22972195#2 465376239 465376255#2 190447767 190447766#1 4402228 465376254 222328410 -6228081 541295974 153698390#1 427637455 705182550"/>
    </vehicle>
    <vehicle id="veh16" type="veh_passenger" depart="21.42" departLane="best" departSpeed="max">
        <route edges="156364553#0 156364553#1 61583424#1 534588621#0 534588621#1 24913519#1 24913519#2 541763975 202156995#0 202156995#1 4067932#1 339201219 -23121445#5 -23121445#4 -23121445#3 -23121445#2 -23121445#1 -23121445#0 202156991#0 202156991#1 202156991#2"/>
    </vehicle>
    <vehicle id="veh17" type="veh_passenger" depart="22.75" departLane="best">
        <route edges="4610362#4 4610362#5 4610362#6 4610362#7 4610362#8 30721662#0 30721662#1 30721662#2 30721662#3 831659093#0 831659093#1 23809670#1 23809670#2 23809670#3 28016312#0 28016312#1 -156364570#3 -156364570#1 25294729#0 25294729#1"/>
    </vehicle>
    <vehicle id="veh19" type="veh_passenger" depart="25.43" departLane="best" departSpeed="max">
        <route edges="342968607#0 461526152#0 340498982#0 340498982#2 340498982#3 340498982#4 340498982#5 340498982#8 340498982#9 354528932 251884680 339201217#0 339201217#1 15971196 54048862#0 54048862#1 54048862#3 831694400 23013165#0 23013165#1 23013165#2 4611698#1 202156994#0 -534588621#1 -534588621#0 606078071#0 -751595930 -156364553#0"/>
    </vehicle>
    <vehicle id="veh20" type="veh_passenger" depart="26.77" departLane="best" departSpeed="max">
        <route edges="-437325051 -111251382#3 541295978#1 389705415#1 -541295974 6228081 -222328410 -465376254 -4402228 190447768#2 195411602#1 465376240#0 195411604 11483007#0"/>
    </vehicle>
    <vehicle id="veh21" type="veh_passenger" depart="28.11" departLane="best">
        <route edges="-195397561#6 -195397561#3 -195397561#1 -195397561#0 35578576#0 35578576#1 35578576#2 83517336#3 83517336#4 340498976#2 340498976#3 340498976#6 340498976#8 340498976#10 83517339 -4610480 4610600 15971189 339201177#0 -339201177#0 -15971189 -4610600"/>
    </vehicle>
    <vehicle id="veh22" type="veh_passenger" depart="29.45" departLane="best" departSpeed="max">
        <route edges="-202156991#2 -202156991#1 -202156991#0 23121445#0 23121445#1 23121445#2 23121445#3 23121445#4 23121445#5 541763974 61584187#1 61584187#2 61584187#3 61584187#4 54048863 15971197#0 15971197#1 4611699 751602168 169195795#0 169195795#1 169195795#4 169195795#5 169195795#6 169195795#7 169195795#8 169195795#9 882389494 340498988#0 -194069450#2 -882389497"/>
    </vehicle>
    <vehicle id="veh23" type="veh_passenger" depart="30.78" departLane="best">
        <route edges="340498976#2 340498976#3 340498976#6 340498976#8 340498976#10 83517339 -4610480 -168937986#5 -168937986#4 -168937986#3 -168937986#1 169195795#0 169195795#1 340498982#8 340498982#9 354528932 251884680 339201217#0 339201217#1 15971196 54048862#0 54048862#1 54048862#3 831694400 23013165#0 23013165#1 23013165#2 4611698#1 202156994#0 72157174#1 171826984#2"/>
    </vehicle>
    <vehicle id="veh24" type="veh_passenger" depart="32.12" departLane="best">
        <route edges="136571494#0 136571494#1 136571494#2 136571494#3 136571494#4 61583424#1 534588621#0 534588621#1 24913519#1 24913519#2 541763975 202156995#0 202156995#1 4067932#1 339201219 541763974 61584187#1 61584187#2 61584187#3 61584187#4 54048863 15971197#0 15971197#1 4611699 751602168 169195795#0 169195795#1 169195795#4 169195795#5 169195795#6 169195795#7 114667396#0 -15977422#0 -195411605#0 -31313667#2 -31313667#1 -31313667#0 -492340367#0 -339201185 24243101 24243107#0 24243107#1 168940071#0 168940071#1 -4610374"/>
    </vehicle>
    <vehicle id="veh25" type="veh_passenger" depart="33.46" departLane="best" departSpeed="max">
        <route edges="-51167934#3 -51167934#2 -51167934#0 -437325047#2 -437325047#1 -437325047#0 4610362#0 4610362#1 4610362#2 4610362#3 4610362#4 4610362#5 4610362#6 4610362#7 4610362#8 30721662#0 30721662#1 30721662#2 30721662#3 831659093#0 831659093#1 23809670#1 23809670#2 23809670#3 28016312#0 28016312#1 -156364570#3 -156364570#1 -156364570#0 -77348147 25294728 234463931#1 234463931#2 234463931#3 234463931#4 234463931#5 234463931#6 234463928#1 55741054"/>
    </vehicle>
    <vehicle id="veh26" type="veh_passenger" depart="34.80" departLane="best" departSpeed="max">
        <route edges="342968607#0 461526152#0 340498982#0 340498982#2 340498982#3 340498982#4 340498982#5 340498982#8 340498982#9 354528932 251884680 339201217#0 339201217#1 15971196 54048862#0 54048862#1 54048862#3 831694400 23013165#0 23013165#1 23013165#2 4611698#1 202156994#0 4773465#1 4773465#2 4773465#3 490365295#0 490365295#1 -156364570#3 -156364570#1 25294729#0 25294729#1"/>
    </vehicle>
    <vehicle id="veh27" type="veh_passenger" depart="36.14" departLane="best" departSpeed="max">
        <route edges="-34848160#3 -34848160#2 -34848160#1 222328410 -6228081 541295974 30720544#0 30720544#1 42103020#0 42103020#2 42103021"/>
    </vehicle>
    <vehicle id="veh28" type="veh_passenger" depart="37.48" departLane="best" departSpeed="max">
        <route edges="-34848160#3 -34848160#2 -34848160#1 -465376254 -4402228 190447768#2 195411602#1 465376240#0 195411604 83517336#0 83517336#2 153698394#1 153698394#2 340498982#0 340498982#2 340498982#3 340498982#4 340498982#5 340498982#8 340498982#9 354528932 251884680 339201217#0 339201217#1 15971196 54048862#0 54048862#1 54048862#3 831694400 23013165#0 23013165#1 23013165#2 4611698#1 202156994#0 72157174#1 171826984#2"/>
    </vehicle>
    <vehicle id="veh29" type="veh_passenger" depart="38.81" departLane="best" departSpeed="max">
        <route edges="882389497 194069450#0 461526152#0 340498982#0 340498982#2 169195795#7 114667396#0 -15977422#0 -195411605#0 31313667#3"/>
    </vehicle>
    <vehicle id="veh30" type="veh_passenger" depart="40.15" departLane="best" departSpeed="max">
        <route edges="24914992#0 24914992#1 171826985#1 171826985#3 24913519#1 24913519#2 541763975 202156995#0 202156995#1 4067932#1 339201219 541763974 61584187#1 61584187#2 61584187#3 61584187#4 54048863 15971197#0 15971197#1 4611699 751602168 169195795#0 169195795#1 169195795#4 169195795#5 169195795#6 169195795#7 169195795#8 169195795#9 882389494 340498988#0 169999355#0 -11483007#2 22972195#2 465376239 465376255#2 190447767 190447766#1 4402228 465376254 34848160#1 34848160#2 34848160#3"/>
    </vehicle>
    <vehicle id="veh31" type="veh_passenger" depart="41.49" departLane="best" departSpeed="max">
        <route edges="-437325051 -111251382#3 541295978#1 389705415#1 -541295974 6228081 -222328410 -465376254 -4402228 190447768#2 195411602#1 465376240#0 195411604 83517336#0 83517336#2 153698394#1 153698394#2 340498982#0 340498982#2 340498982#3 340498982#4 340498982#5 340498982#8 340498982#9 354528932 251884680 339201217#0 339201217#1 15971196 54048862#0 54048862#1 54048862#3 831694400 23013165#0 23013165#1 23013165#2 4611698#1 202156994#0 -534588621#1 -534588621#0 606078071#0 -751595930 -156364553#0"/>
    </vehicle>
    <vehicle id="veh32" type="veh_passenger" depart="42.83" departLane="best" departSpeed="max">
        <route edges="-705182550 -427637455 -153698390#1 -541295974 6228081 -222328410 -465376254 -4402228 190447768#2 195411602#1 465376240#0 195411604 11483007#0 -169999355#2 -194069450#2 -882389497"/>
    </vehicle>
    <vehicle id="veh33" type="veh_passenger" depart="44.17" departLane="best" departSpeed="max">
        <route edges="-437325051 -111251382#3 541295978#1 389705415#1 -541295974 6228081 -222328410 -465376254 -4402228 190447768#2 195411602#1 465376240#0 195411604 83517336#0 83517336#2 153698394#1 153698394#2 340498982#0 340498982#2 340498982#3 340498982#4 340498982#5 340498982#8 340498982#9 354528932 251884680 339201217#0 339201217#1 15971196 54048862#0 54048862#1 54048862#3 831694400 23013165#0 23013165#1 23013165#2 4611698#1 202156994#0 4773465#1 4773465#2 4773465#3 490365295#0 490365295#1 -156364570#3 -156364570#1 -156364570#0 -77348147 25294728 234463931#1 234463931#2 234463931#3 234463931#4 234463931#5 234463931#6 234463928#1 55741054"/>
    </vehicle>
    <vehicle id="veh34" type="veh_passenger" depart="45.51" departLane="best" departSpeed="max">
        <route edges="4773029#0 4773029#1 28251222#0 28251222#1 340498982#8 340498982#9 354528932 251884680 339201217#0 339201217#1 15971196 54048862#0 54048862#1 54048862#3 831694400 23013165#0 23013165#1 23013165#2 4611698#1 202156994#0 -534588621#1 -534588621#0 606078071#0 -751595928#1 -136571494#3 136571494#3"/>
    </vehicle>
    <vehicle id="veh35" type="veh_passenger" depart="46.85" departLane="best" departSpeed="max">
        <route edges="342968607#0 461526152#0 340498982#0 340498982#2 340498982#3 340498982#4 340498982#5 340498982#8 340498982#9 354528932 251884680 339201217#0 339201217#1 15971196 54048862#0 54048862#1 54048862#3 831694400 23013165#0 23013165#1 23013165#2 4611698#1 202156994#0 72157174#1 171826984#2"/>
    </vehicle>
    <vehicle id="veh36" type="veh_passenger" depart="48.18" departLane="best" departSpeed="max">
        <route edges="54781811#0 54781811#1 305153174 43230886 4611694#0 4611694#1 251884680 339201217#0 339201217#1 15971196 54048862#0 54048862#1 54048862#3 541763974 61584187#1 61584187#2 61584187#3 61584187#4 54048863 15971197#0 15971197#1 4611699 751602168 169195795#0 169195795#1 169195795#4 169195795#5 169195795#6 169195795#7 169195795#8 169195795#9 882389494 340498988#0 188386313#1 188386313#2"/>
    </vehicle>
    <vehicle id="veh37" type="veh_passenger" depart="49.52" departLane="best" departSpeed="max">
        <route edges="-51167934#3 -51167934#2 -51167934#0 -437325047#2 -437325047#1 -437325047#0 4610362#0 4610362#1 4610362#2 4610362#3 4610362#4 4610362#5 4610362#6 4610362#7 4610362#8 30721662#0 30721662#1 30721662#2 30721662#3 831659093#0 831659093#1 23809670#1 23809670#2 23809670#3 28016312#0 28016312#1 156364556#1 202157002#1 202157002#2 24913519#1 24913519#2 541763975 202156995#0 202156995#1 4067932#1 339201219 541763974 61584187#1 61584187#2 61584187#3 61584187#4 54048863 15971197#0 15971197#1 4611699 751602168 169195795#0 169195795#1 -28251222#1 -28251222#0 -4773029#1 -4773029#0"/>
    </vehicle>
    <vehicle id="veh38" type="veh_passenger" depart="50.86" departLane="best" departSpeed="max">
        <route edges="24914992#0 24914992#1 171826985#1 171826985#3 -534588621#1 -534588621#0 606078071#0 -751595928#1"/>
    </vehicle>
    <vehicle id="veh39" type="veh_passenger" depart="52.20" departLane="best" departSpeed="max">
        <route edges="24914992#0 24914992#1 171826985#1 171826985#3 4773465#1"/>
    </vehicle>
    <vehicle id="veh40" type="veh_passenger" depart="53.54" departLane="best" departSpeed="max">
        <route edges="156364553#0 156364553#1 61583424#1 534588621#0 534588621#1 24913519#1 24913519#2 541763975 202156995#0 202156995#1 4067932#1 339201219 541763974 61584187#1 61584187#2 61584187#3 61584187#4 54048863 15971197#0 15971197#1 4611699 751602168 169195795#0 169195795#1 169195795#4 169195795#5 169195795#6 169195795#7 114667396#0 -15977422#0 -195411605#0 -31313667#2 -31313667#1 -31313667#0 -492340367#0 -339201185 24243101 24243107#0 24243107#1 168940071#0 168940071#1 -4610374"/>
    </vehicle>
    <vehicle id="veh41" type="veh_passenger" depart="54.88" departLane="best" departSpeed="max">
        <route edges="882389497 194069450#0 461526152#0 340498982#0 340498982#2 340498982#3 340498982#4 340498982#5 340498982#8 340498982#9 354528932 251884680 339201217#0 339201217#1 15971196 54048862#0 54048862#1 54048862#3 831694400 23013165#0 23013165#1 23013165#2 4611698#1 202156994#0 -534588621#1 -534588621#0 606078071#0 751595929#1 194962375#1 194962375#2"/>
    </vehicle>
    <vehicle id="veh42" type="veh_passenger" depart="56.21" departLane="best" departSpeed="max">
        <route edges="-202156991#2 -202156991#1 -202156991#0 23121445#0 23121445#1 23121445#2 23121445#3 23121445#4 23121445#5 831694400 23013165#0 23013165#1 23013165#2 4611698#1 202156994#0 -534588621#1 -534588621#0 606078071#0 -751595930 -156364553#0"/>
    </vehicle>
    <vehicle id="veh43" type="veh_passenger" depart="57.55" departLane="best">
        <route edges="-23809670#1 23809670#1 23809670#2 23809670#3 28016312#0 28016312#1 -156364570#3 -156364570#1 25294729#0 25294729#1"/>
    </vehicle>
    <vehicle id="veh44" type="veh_passenger" depart="58.89" departLane="best" departSpeed="max">
        <route edges="43156728#0 43156728#2 202817674#0 202817674#3 202817674#4 202817674#5 -38208961 136571494#0 136571494#1 136571494#2 136571494#3 136571494#4 61583424#1 534588621#0 534588621#1 24913519#1 24913519#2 541763975 202156995#0 202156995#1 4067932#1 339201219 541763974 61584187#1 61584187#2 61584187#3 61584187#4 54048863 15971197#0 15971197#1 4611699 751602168 169195795#0 169195795#1 169195795#4 169195795#5 169195795#6 169195795#7 169195795#8 169195795#9 882389494 340498988#0 188386313#1 188386313#2"/>
    </vehicle>
    <vehicle id="veh45" type="veh_passenger" depart="60.23" departLane="best" departSpeed="max">
        <route edges="-194962375#2 -194962375#1 -194962375#0 61583424#1 534588621#0 534588621#1 72157174#1 171826984#2"/>
    </vehicle>
    <vehicle id="veh46" type="veh_passenger" depart="61.57" departLane="best" departSpeed="max">
        <route edges="882389497 194069450#0 461526152#0 340498982#0 340498982#2 169195795#7 114667396#0 340498976#2 340498976#3 -122820534#1 -122820534#0 4610479#0 4610479#1 22972219#0 35578559 195397541#1"/>
    </vehicle>
    <vehicle id="veh47" type="veh_passenger" depart="62.91" departLane="best" departSpeed="max">
        <route edges="-120675240#3 -120675240#2 -43156728#4 43156728#2 202817674#0 202817674#3 202817674#4 202817674#5 -38208961 136571494#0 136571494#1 136571494#2 136571494#3 136571494#4 61583424#1 534588621#0 534588621#1 24913519#1 24913519#2 541763975 202156995#0 202156995#1 4067932#1 339201219 541763974 61584187#1 61584187#2 61584187#3 61584187#4 54048863 15971197#0 15971197#1 4611699 751602168 169195795#0 169195795#1 169195795#4 169195795#5 169195795#6 169195795#7 169195795#8 169195795#9 882389494 340498988#0 169999355#0 -11483007#2 22972195#2 465376239 465376255#2 190447767 190447766#1 4402228 465376254 222328410 -6228081 541295974 30720544#0 30720544#1 42103020#0 42103020#2 42103021"/>
    </vehicle>
    <vehicle id="veh48" type="veh_passenger" depart="64.25" departLane="best" departSpeed="max">
        <route edges="342968607#0 461526152#0 340498982#0 340498982#2 340498982#3 340498982#4 340498982#5 340498982#8 340498982#9 354528932 251884680 339201217#0 339201217#1 15971196 54048862#0 54048862#1 54048862#3 -23121445#5 -23121445#4 -23121445#3 -23121445#2 -23121445#1 -23121445#0 202156991#0 202156991#1 202156991#2"/>
    </vehicle>
    <vehicle id="veh49" type="veh_passenger" depart="65.58" departLane="best" departSpeed="max">
        <route edges="-51167934#3 -51167934#2 -51167934#0 -437325047#2 -437325047#1 -437325047#0 4610362#0 4610362#1 4610362#2 4610362#3 4610362#4 4610362#5 4610362#6 4610362#7 4610362#8 30721662#0 30721662#1 30721662#2 30721662#3 831659093#0 831659093#1 23809670#1 23809670#2 23809670#3 28016312#0 28016312#1 -156364570#3 -156364570#1 -156364570#0 -77348147 -387892378 -370359204#1 -370359204#0 -743631784 -316746323#2 316746323#1"/>
    </vehicle>
    <vehicle id="veh50" type="veh_passenger" depart="66.92" departLane="best">
        <route edges="-24243107#1 -24243107#0 -24243101 339201185 4610472#0 4610472#1 4610472#2 -465376254 -4402228 190447768#2 195411602#1 465376240#0 195411604 11483007#0 -169999355#2 188386313#1 188386313#2"/>
    </vehicle>
    <vehicle id="veh51" type="veh_passenger" depart="68.26" departLane="best" departSpeed="max">
        <route edges="158023913#0 158023913#2 158023913#4 83517336#0 83517336#2 153698394#1 153698394#2 340498982#0 340498982#2 340498982#3 340498982#4 340498982#5 340498982#8 340498982#9 354528932 251884680 339201217#0 339201217#1 15971196 54048862#0 54048862#1 54048862#3 831694400 23013165#0 23013165#1 23013165#2 4611698#1 202156994#0 4773465#1 4773465#2 4773465#3 490365295#0 490365295#1 -156364570#3 -156364570#1 -156364570#0 -77348147 25294728 234463931#1 234463931#2 234463931#3 234463931#4 234463931#5 234463931#6 234463928#1 55741054"/>
    </vehicle>
    <vehicle id="veh52" type="veh_passenger" depart="69.60" departLane="best" departSpeed="max">
        <route edges="4773029#0 4773029#1 28251222#0 28251222#1 340498982#8 340498982#9 354528932 251884680 339201217#0 339201217#1 15971196 54048862#0 54048862#1 54048862#3 831694400 23013165#0 23013165#1 23013165#2 4611698#1 202156994#0 -534588621#1 -534588621#0 606078071#0 -751595930"/>
    </vehicle>
    <vehicle id="veh53" type="veh_passenger" depart="70.94" departLane="best" departSpeed="max">
        <route edges="54781811#0 54781811#1 305153174 43230886 4611694#0 4611694#1 251884680 339201217#0 339201217#1 15971196 54048862#0 54048862#1 54048862#3 541763974 61584187#1 61584187#2 61584187#3 61584187#4 54048863 15971197#0 15971197#1 4611699 751602168 169195795#0 169195795#1 169195795#4 169195795#5 169195795#6 169195795#7 169195795#8 169195795#9 882389494 340498988#0 461526152#0"/>
    </vehicle>
    <vehicle id="veh54" type="veh_passenger" depart="72.28" departLane="best" departSpeed="max">
        <route edges="-55741054 -168942727#3 -168942727#2 -168942727#1 -168942727#0 -743631784 -316746323#2 -316746323#0 -84960595 183415643 46140382 30721660#0 30721660#1 30721660#2 30721660#3 30721660#4 30721660#5 4610362#0 4610362#1 4610362#2 4610362#3 4610362#4 4610362#5 4610362#6 4610362#7 4610362#8 30721662#0 30721662#1 30721662#2 30721662#3"/>
    </vehicle>
    <vehicle id="veh55" type="veh_passenger" depart="73.61" departLane="best" departSpeed="max">
        <route edges="24914992#0 24914992#1 171826985#1 171826985#3 24913519#1 24913519#2 541763975 202156995#0 202156995#1 4067932#1 339201219 541763974 61584187#1 61584187#2 61584187#3 61584187#4 54048863 15971197#0 15971197#1 4611699 751602168 169195795#0 169195795#1 169195795#4 169195795#5 169195795#6 169195795#7 169195795#8 169195795#9 -66071373#3 -243854725#2"/>
    </vehicle>
    <vehicle id="veh56" type="veh_passenger" depart="74.95" departLane="best" departSpeed="max">
        <route edges="380240681 750204886 -153698390#1 -541295974 6228081 -222328410 -465376254 -4402228 190447768#2 195411602#1 465376240#0 195411604 83517336#0 83517336#2 153698394#1 153698394#2 340498982#0 340498982#2 340498982#3 340498982#4 340498982#5 340498982#8 340498982#9 354528932 251884680 339201217#0 339201217#1 15971196 54048862#0 54048862#1 54048862#3 -23121445#5 -23121445#4 -23121445#3 -23121445#2 -23121445#1 -23121445#0 202156991#0 202156991#1 202156991#2"/>
    </vehicle>
    <vehicle id="veh57" type="veh_passenger" depart="76.29" departLane="best">
        <route edges="-111251382#3 541295978#1 389705415#1 -541295974 6228081 -222328410 -4610472#4 -4610472#1 -4610472#0 492340367#0 492340367#1 31313667#1 31313667#2 31313667#3 15977422#0"/>
    </vehicle>
    <vehicle id="veh58" type="veh_passenger" depart="77.63" departLane="best" departSpeed="max">
        <route edges="-705182550 -427637455 -153698390#1 -541295974 6228081 -222328410 -465376254 -4402228 190447768#2 195411602#1 465376240#0 195411604 83517336#0 83517336#2 153698394#1 153698394#2 340498982#0 340498982#2 340498982#3 340498982#4 340498982#5 340498982#8 340498982#9 354528932 251884680 339201217#0 339201217#1 15971196 54048862#0 54048862#1 54048862#3 831694400 23013165#0 23013165#1 23013165#2 4611698#1 202156994#0 -534588621#1 -534588621#0 606078071#0 -751595930 -156364553#0"/>
    </vehicle>
    <vehicle id="veh59" type="veh_passenger" depart="78.97" departLane="best" departSpeed="max">
        <route edges="4773029#0 4773029#1 28251222#0 28251222#1 340498982#8 340498982#9 354528932 251884680 339201217#0 339201217#1 15971196 54048862#0 54048862#1 54048862#3 831694400 23013165#0 23013165#1 23013165#2 4611698#1 202156994#0 4773465#1 4773465#2 4773465#3 490365295#0 490365295#1 -156364570#3 -156364570#1 -156364570#0 -77348147 25294728 234463931#1 234463931#2 234463931#3 234463931#4 234463931#5 234463931#6 234463928#1 55741054"/>
    </vehicle>
    <vehicle id="veh60" type="veh_passenger" depart="80.31" departLane="best" departSpeed="max">
        <route edges="-202156991#2 -202156991#1 -202156991#0 23121445#0 23121445#1 23121445#2 23121445#3 23121445#4 23121445#5 831694400 23013165#0 23013165#1 23013165#2 4611698#1 202156994#0 4773465#1 4773465#2 4773465#3 490365295#0 490365295#1 -156364570#3 -156364570#1 -156364570#0 -77348147 25294728 234463931#1 234463931#2 234463931#3 234463931#4 234463931#5 234463931#6 234463928#1 188914559"/>
    </vehicle>
    <vehicle id="veh61" type="veh_passenger" depart="81.65" departLane="best" departSpeed="max">
        <route edges="-194962375#2 -194962375#1 -194962375#0 61583424#1 534588621#0 534588621#1 4773465#1 4773465#2 4773465#3 490365295#0 490365295#1 -156364570#3 -156364570#1 -156364570#0 -77348147 -387892378 -370359204#1 -370359204#0 -743631784 -316746323#2 -316746323#0 -84960595 183415643 46140382 30721660#0 30721660#1 30721660#2 30721660#3 30721660#4 30721660#5 437325047#0 437325047#1 437325047#2 437325047#3"/>
    </vehicle>
    <vehicle id="veh62" type="veh_passenger" depart="82.98" departLane="best" departSpeed="max">
        <route edges="380240681 750204886 -153698390#1 -541295974 6228081 -222328410 -465376254 -4402228 190447768#2 195411602#1 465376240#0 195411604 11483007#0 -169999355#2 -194069450#2"/>
    </vehicle>
    <vehicle id="veh63" type="veh_passenger" depart="84.32" departLane="best">